<?xml version="1.0" encoding="UTF-8"?>

<configuration xmlns:xsi="http://www.w3.org/2001/XMLSchema-instance" xsi:noNamespaceSchemaLocation="http://sumo.dlr.de/xsd/sumoConfiguration.xsd">

    <input>
        <net-file value="curve_r150.net.xml"/>
        <route-files value="curve_r150.rou.xml"/>
    </input>

    <time>
        <step-length value="0.01"/>
    </time>

</configuration>
