<?xml version="1.0" encoding="UTF-8"?>

<!-- generated on 2024-02-11 23:51:47 by Eclipse SUMO netconvert Version 1.19.0
<configuration xmlns:xsi="http://www.w3.org/2001/XMLSchema-instance" xsi:noNamespaceSchemaLocation="http://sumo.dlr.de/xsd/netconvertConfiguration.xsd">

    <input>
        <osm-files value="osm/newparis.osm"/>
    </input>

    <projection>
        <proj.utm value="true"/>
    </projection>

</configuration>
-->

<net version="1.16" junctionCornerDetail="5" limitTurnSpeed="5.50" xmlns:xsi="http://www.w3.org/2001/XMLSchema-instance" xsi:noNamespaceSchemaLocation="http://sumo.dlr.de/xsd/net_file.xsd">

    <location netOffset="-452140.21,-5411790.27" convBoundary="0.00,0.00,3118.70,1984.67" origBoundary="2.347518,48.857243,2.389823,48.875317" projParameter="+proj=utm +zone=31 +ellps=WGS84 +datum=WGS84 +units=m +no_defs"/>

    <type id="highway.cycleway" priority="1" numLanes="1" speed="5.56" allow="bicycle" oneway="0" width="2.00"/>
    <type id="highway.footway" priority="1" numLanes="1" speed="2.78" allow="pedestrian" oneway="1" width="2.00"/>
    <type id="highway.living_street" priority="2" numLanes="1" speed="2.78" disallow="tram rail_urban rail rail_electric rail_fast ship" oneway="0"/>
    <type id="highway.pedestrian" priority="1" numLanes="1" speed="2.78" allow="pedestrian" oneway="1" width="2.00"/>
    <type id="highway.residential" priority="3" numLanes="1" speed="13.89" disallow="tram rail_urban rail rail_electric rail_fast ship" oneway="0"/>
    <type id="highway.secondary" priority="11" numLanes="1" speed="27.78" disallow="tram rail_urban rail rail_electric rail_fast ship" oneway="0"/>
    <type id="highway.service" priority="1" numLanes="1" speed="5.56" allow="pedestrian delivery bicycle" oneway="0"/>
    <type id="highway.steps" priority="1" numLanes="1" speed="1.39" allow="pedestrian" oneway="1" width="2.00"/>
    <type id="highway.unclassified" priority="4" numLanes="1" speed="13.89" disallow="tram rail_urban rail rail_electric rail_fast ship" oneway="0"/>
    <type id="railway.subway" priority="18" numLanes="1" speed="27.78" allow="rail_urban" oneway="1"/>

    <edge id=":10290370112_0" function="internal">
        <lane id=":10290370112_0_0" index="0" allow="bicycle" speed="5.56" length="3.85" width="2.00" shape="613.99,899.71 610.36,898.42"/>
    </edge>
    <edge id=":10290370112_1" function="internal">
        <lane id=":10290370112_1_0" index="0" allow="bicycle" speed="2.89" length="2.92" width="2.00" shape="613.99,899.71 613.46,898.98 613.39,898.43 613.80,898.04 614.68,897.83"/>
    </edge>
    <edge id=":10290370112_2" function="internal">
        <lane id=":10290370112_2_0" index="0" allow="bicycle" speed="5.56" length="4.33" width="2.00" shape="612.60,894.13 613.14,895.61 613.67,896.72 614.18,897.47 614.68,897.83"/>
    </edge>
    <edge id=":10290370112_3" function="internal">
        <lane id=":10290370112_3_0" index="0" allow="bicycle" speed="4.69" length="6.86" width="2.00" shape="612.60,894.13 613.17,896.55 612.98,898.08 612.05,898.70 610.36,898.42"/>
    </edge>
    <edge id=":10290370112_4" function="internal">
        <lane id=":10290370112_4_0" index="0" allow="bicycle" speed="5.56" length="3.87" width="2.00" shape="611.03,896.54 614.68,897.83"/>
    </edge>
    <edge id=":10290370112_5" function="internal">
        <lane id=":10290370112_5_0" index="0" allow="bicycle" speed="2.89" length="2.92" width="2.00" shape="611.03,896.54 611.57,897.26 611.64,897.81 611.23,898.20 610.36,898.42"/>
    </edge>
    <edge id=":10290370114_0" function="internal">
        <lane id=":10290370114_0_0" index="0" allow="bicycle" speed="4.61" length="4.33" width="2.00" shape="605.66,879.44 606.25,880.39 607.04,880.92 608.05,881.03 609.25,880.71"/>
    </edge>
    <edge id=":10290370114_1" function="internal">
        <lane id=":10290370114_1_0" index="0" allow="bicycle" speed="5.56" length="6.42" width="2.00" shape="605.66,879.44 606.41,881.19 606.97,882.37 607.62,883.50 608.63,885.12"/>
    </edge>
    <edge id=":10290370114_2" function="internal">
        <lane id=":10290370114_2_0" index="0" disallow="tram rail_urban rail rail_electric rail_fast ship" speed="8.33" length="2.60" shape="607.06,882.24 609.48,881.27"/>
    </edge>
    <edge id=":10290370114_3" function="internal">
        <lane id=":10290370114_3_0" index="0" allow="bicycle" speed="4.32" length="2.92" width="2.00" shape="607.28,882.79 607.81,882.88 608.10,883.50 608.32,884.34 608.63,885.12"/>
    </edge>
    <edge id=":10290370115_0" function="internal">
        <lane id=":10290370115_0_0" index="0" allow="bicycle" speed="5.56" length="5.29" width="2.00" shape="603.24,873.38 605.18,878.30"/>
    </edge>
    <edge id=":10290370122_0" function="internal">
        <lane id=":10290370122_0_0" index="0" allow="bicycle" speed="5.56" length="0.30" width="2.00" shape="549.32,726.23 549.42,726.51"/>
    </edge>
    <edge id=":10290370124_0" function="internal">
        <lane id=":10290370124_0_0" index="0" allow="bicycle" speed="5.56" length="0.30" width="2.00" shape="545.02,714.52 545.12,714.80"/>
    </edge>
    <edge id=":10290370128_0" function="internal">
        <lane id=":10290370128_0_0" index="0" allow="bicycle" speed="5.56" length="0.10" width="2.00" shape="506.53,612.68 506.53,612.68"/>
    </edge>
    <edge id=":10290370134_0" function="internal">
        <lane id=":10290370134_0_0" index="0" allow="bicycle" speed="5.56" length="0.30" width="2.00" shape="445.87,444.83 445.94,445.13"/>
    </edge>
    <edge id=":10561998142_0" function="internal">
        <lane id=":10561998142_0_0" index="0" allow="pedestrian delivery bicycle" speed="8.33" length="4.90" shape="722.44,895.59 727.03,893.87"/>
    </edge>
    <edge id=":10569171345_0" function="internal">
        <lane id=":10569171345_0_0" index="0" allow="bicycle" speed="5.56" length="0.28" width="2.00" shape="796.46,961.11 796.20,961.02"/>
    </edge>
    <edge id=":10569171345_1" function="internal">
        <lane id=":10569171345_1_0" index="0" allow="bicycle" speed="5.56" length="0.21" width="2.00" shape="796.90,959.15 797.10,959.22"/>
    </edge>
    <edge id=":10569171346_0" function="internal">
        <lane id=":10569171346_0_0" index="0" allow="bicycle" speed="5.56" length="4.72" width="2.00" shape="746.23,943.18 741.76,941.65"/>
    </edge>
    <edge id=":10569171346_1" function="internal">
        <lane id=":10569171346_1_0" index="0" allow="bicycle" speed="2.89" length="1.25" width="2.00" shape="746.23,943.18 745.68,942.45 745.64,942.11"/>
    </edge>
    <edge id=":10569171346_4" function="internal">
        <lane id=":10569171346_4_0" index="0" allow="bicycle" speed="2.89" length="1.67" width="2.00" shape="745.64,942.11 745.61,941.90 746.02,941.51 746.89,941.29"/>
    </edge>
    <edge id=":10569171346_2" function="internal">
        <lane id=":10569171346_2_0" index="0" allow="bicycle" speed="5.56" length="4.77" width="2.00" shape="742.38,939.75 746.89,941.29"/>
    </edge>
    <edge id=":10569171346_3" function="internal">
        <lane id=":10569171346_3_0" index="0" allow="bicycle" speed="2.89" length="1.29" width="2.00" shape="742.38,939.75 742.94,940.46 742.99,940.85"/>
    </edge>
    <edge id=":10569171346_5" function="internal">
        <lane id=":10569171346_5_0" index="0" allow="bicycle" speed="2.89" length="1.63" width="2.00" shape="742.99,940.85 743.02,941.01 742.63,941.41 741.76,941.65"/>
    </edge>
    <edge id=":11050857319_0" function="internal">
        <lane id=":11050857319_0_0" index="0" allow="pedestrian delivery bicycle" speed="5.56" length="1.18" shape="661.98,962.82 661.49,961.74"/>
    </edge>
    <edge id=":11050857319_1" function="internal">
        <lane id=":11050857319_1_0" index="0" allow="pedestrian delivery bicycle" speed="3.65" length="1.44" shape="661.98,962.82 662.21,961.40"/>
    </edge>
    <edge id=":11050857319_4" function="internal">
        <lane id=":11050857319_4_0" index="0" allow="pedestrian delivery bicycle" speed="3.65" length="3.23" shape="662.21,961.40 662.78,960.71 663.67,960.74 664.90,961.50"/>
    </edge>
    <edge id=":11050857319_2" function="internal">
        <lane id=":11050857319_2_0" index="0" allow="pedestrian delivery bicycle" speed="5.56" length="1.17" shape="664.41,960.43 664.90,961.50"/>
    </edge>
    <edge id=":11050857319_3" function="internal">
        <lane id=":11050857319_3_0" index="0" allow="pedestrian delivery bicycle" speed="3.65" length="1.44" shape="664.41,960.43 664.17,961.86"/>
    </edge>
    <edge id=":11050857319_5" function="internal">
        <lane id=":11050857319_5_0" index="0" allow="pedestrian delivery bicycle" speed="3.65" length="3.23" shape="664.17,961.86 663.61,962.55 662.71,962.51 661.49,961.74"/>
    </edge>
    <edge id=":11052483097_0" function="internal">
        <lane id=":11052483097_0_0" index="0" allow="bicycle" speed="5.56" length="0.30" width="2.00" shape="956.53,1015.76 956.25,1015.66"/>
    </edge>
    <edge id=":11052483097_1" function="internal">
        <lane id=":11052483097_1_0" index="0" allow="bicycle" speed="5.56" length="0.30" width="2.00" shape="956.90,1013.77 957.19,1013.87"/>
    </edge>
    <edge id=":11088556281_0" function="internal">
        <lane id=":11088556281_0_0" index="0" allow="bicycle" speed="5.56" length="0.40" width="2.00" shape="610.17,898.36 610.55,898.49"/>
    </edge>
    <edge id=":11088556281_1" function="internal">
        <lane id=":11088556281_1_0" index="0" allow="bicycle" speed="5.56" length="0.55" width="2.00" shape="611.36,896.65 610.84,896.47"/>
    </edge>
    <edge id=":11088556282_0" function="internal">
        <lane id=":11088556282_0_0" index="0" allow="bicycle" speed="5.56" length="0.30" width="2.00" shape="600.65,895.10 600.36,895.01"/>
    </edge>
    <edge id=":11088556282_1" function="internal">
        <lane id=":11088556282_1_0" index="0" allow="bicycle" speed="5.56" length="0.30" width="2.00" shape="600.99,893.11 601.27,893.20"/>
    </edge>
    <edge id=":11240558869_0" function="internal">
        <lane id=":11240558869_0_0" index="0" allow="bicycle" speed="5.56" length="5.02" width="2.00" shape="689.83,924.33 685.04,922.83"/>
    </edge>
    <edge id=":11240558869_1" function="internal">
        <lane id=":11240558869_1_0" index="0" allow="bicycle" speed="2.89" length="1.27" width="2.00" shape="689.83,924.33 689.26,923.63 689.20,923.26"/>
    </edge>
    <edge id=":11240558869_4" function="internal">
        <lane id=":11240558869_4_0" index="0" allow="bicycle" speed="2.89" length="1.65" width="2.00" shape="689.20,923.26 689.17,923.08 689.56,922.67 690.42,922.42"/>
    </edge>
    <edge id=":11240558869_2" function="internal">
        <lane id=":11240558869_2_0" index="0" allow="bicycle" speed="5.56" length="5.02" width="2.00" shape="685.64,920.92 690.42,922.42"/>
    </edge>
    <edge id=":11240558869_3" function="internal">
        <lane id=":11240558869_3_0" index="0" allow="bicycle" speed="2.89" length="1.27" width="2.00" shape="685.64,920.92 686.20,921.63 686.26,921.99"/>
    </edge>
    <edge id=":11240558869_5" function="internal">
        <lane id=":11240558869_5_0" index="0" allow="bicycle" speed="2.89" length="1.65" width="2.00" shape="686.26,921.99 686.29,922.18 685.91,922.58 685.04,922.83"/>
    </edge>
    <edge id=":11563929709_0" function="internal">
        <lane id=":11563929709_0_0" index="0" allow="rail_urban" speed="27.78" length="0.10" shape="673.20,896.80 673.20,896.80"/>
    </edge>
    <edge id=":1160283808_0" function="internal">
        <lane id=":1160283808_0_0" index="0" allow="bus bicycle" speed="8.33" length="0.30" shape="474.55,961.99 474.84,961.89"/>
        <lane id=":1160283808_0_1" index="1" disallow="tram rail_urban rail rail_electric rail_fast ship" speed="8.33" length="0.30" shape="475.59,965.02 475.87,964.92"/>
        <lane id=":1160283808_0_2" index="2" disallow="tram rail_urban rail rail_electric rail_fast ship" speed="8.33" length="0.30" shape="476.63,968.04 476.91,967.95"/>
    </edge>
    <edge id=":175042209_0" function="internal">
        <lane id=":175042209_0_0" index="0" disallow="tram rail_urban rail rail_electric rail_fast ship" speed="6.71" length="8.10" shape="786.86,961.84 784.82,961.51 783.00,961.88 781.42,962.97 780.06,964.77"/>
    </edge>
    <edge id=":175042209_1" function="internal">
        <lane id=":175042209_1_0" index="0" disallow="tram rail_urban rail rail_electric rail_fast ship" speed="8.33" length="9.64" shape="786.86,961.84 777.68,958.75"/>
        <lane id=":175042209_1_1" index="1" disallow="tram rail_urban rail rail_electric rail_fast ship" speed="8.33" length="9.64" shape="787.84,958.80 778.74,955.73"/>
    </edge>
    <edge id=":175042544_0" function="internal">
        <lane id=":175042544_0_0" index="0" disallow="tram rail_urban rail rail_electric rail_fast ship" speed="6.20" length="8.10" shape="701.09,932.77 698.67,932.31 696.75,932.59 695.34,933.60 694.43,935.34"/>
    </edge>
    <edge id=":175042544_1" function="internal">
        <lane id=":175042544_1_0" index="0" disallow="tram rail_urban rail rail_electric rail_fast ship" speed="8.33" length="13.63" shape="701.09,932.77 688.09,928.49"/>
        <lane id=":175042544_1_1" index="1" disallow="tram rail_urban rail rail_electric rail_fast ship" speed="8.33" length="13.63" shape="702.03,929.71 689.15,925.47"/>
    </edge>
    <edge id=":175042544_3" function="internal">
        <lane id=":175042544_3_0" index="0" allow="bicycle" speed="6.16" length="8.21" width="2.00" shape="702.21,929.14 700.57,928.71 697.92,927.99 695.51,927.15 694.59,926.36"/>
    </edge>
    <edge id=":175042544_4" function="internal">
        <lane id=":175042544_4_0" index="0" allow="bicycle" speed="6.95" length="8.65" width="2.00" shape="696.48,927.03 695.82,929.49 695.68,931.25 695.57,933.03 695.01,935.52"/>
    </edge>
    <edge id=":175042544_5" function="internal">
        <lane id=":175042544_5_0" index="0" allow="bicycle" speed="5.99" length="7.89" width="2.00" shape="696.48,927.03 695.81,927.52 694.33,927.52 692.05,927.02 688.95,926.04"/>
    </edge>
    <edge id=":175042544_6" function="internal">
        <lane id=":175042544_6_0" index="0" allow="bicycle" speed="2.89" length="2.92" width="2.00" shape="696.48,927.03 695.76,927.57 695.20,927.64 694.81,927.24 694.59,926.36"/>
    </edge>
    <edge id=":175042544_7" function="internal">
        <lane id=":175042544_7_0" index="0" disallow="tram rail_urban rail rail_electric rail_fast ship" speed="6.13" length="7.65" shape="691.38,934.40 691.67,932.42 691.21,930.78 690.02,929.47 688.09,928.49"/>
    </edge>
    <edge id=":175042544_8" function="internal">
        <lane id=":175042544_8_0" index="0" allow="bicycle" speed="6.95" length="8.75" width="2.00" shape="690.80,934.22 691.73,931.82 692.64,930.27 693.57,928.74 694.59,926.36"/>
    </edge>
    <edge id=":175042544_9" function="internal">
        <lane id=":175042544_9_0" index="0" disallow="tram rail_urban rail rail_electric rail_fast ship" speed="3.65" length="4.67" shape="691.38,934.40 692.49,933.49 693.38,933.34 694.02,933.96 694.43,935.34"/>
    </edge>
    <edge id=":175042755_0" function="internal">
        <lane id=":175042755_0_0" index="0" disallow="tram rail_urban rail rail_electric rail_fast ship" speed="6.15" length="7.97" shape="632.81,970.08 631.25,971.14 630.46,972.64 630.44,974.56 631.19,976.91"/>
    </edge>
    <edge id=":175042755_1" function="internal">
        <lane id=":175042755_1_0" index="0" disallow="tram rail_urban rail rail_electric rail_fast ship" speed="3.65" length="4.67" shape="632.81,970.08 631.39,969.85 630.69,969.28 630.73,968.39 631.49,967.16"/>
    </edge>
    <edge id=":175042755_2" function="internal">
        <lane id=":175042755_2_0" index="0" disallow="tram rail_urban rail rail_electric rail_fast ship" speed="5.83" length="6.97" shape="625.80,964.89 626.83,966.52 628.12,967.44 629.68,967.66 631.49,967.16"/>
    </edge>
    <edge id=":175042755_3" function="internal">
        <lane id=":175042755_3_0" index="0" disallow="tram rail_urban rail rail_electric rail_fast ship" speed="8.33" length="13.18" shape="625.80,964.89 631.19,976.91"/>
    </edge>
    <edge id=":175044779_0" function="internal">
        <lane id=":175044779_0_0" index="0" disallow="tram rail_urban rail rail_electric rail_fast ship" speed="6.11" length="7.61" shape="671.10,890.27 672.02,891.76 673.42,892.57 675.27,892.72 677.60,892.19"/>
    </edge>
    <edge id=":175044779_1" function="internal">
        <lane id=":175044779_1_0" index="0" disallow="tram rail_urban rail rail_electric rail_fast ship" speed="8.33" length="10.85" shape="667.30,895.74 677.60,892.19"/>
        <lane id=":175044779_1_1" index="1" disallow="tram rail_urban rail rail_electric rail_fast ship" speed="8.33" length="10.85" shape="668.36,898.76 678.62,895.22"/>
        <lane id=":175044779_1_2" index="2" disallow="tram rail_urban rail rail_electric rail_fast ship" speed="8.33" length="10.85" shape="669.43,901.78 679.65,898.25"/>
    </edge>
    <edge id=":175045017_0" function="internal">
        <lane id=":175045017_0_0" index="0" allow="bus bicycle" speed="5.44" length="7.16" shape="716.77,883.92 715.34,884.76 714.77,886.03 715.05,887.72 716.18,889.84"/>
    </edge>
    <edge id=":175045017_1" function="internal">
        <lane id=":175045017_1_0" index="0" allow="bus bicycle" speed="3.65" length="1.25" shape="716.77,883.92 715.56,883.60"/>
    </edge>
    <edge id=":175045017_8" function="internal">
        <lane id=":175045017_8_0" index="0" allow="bus bicycle" speed="3.65" length="3.43" shape="715.56,883.60 715.37,883.55 714.73,882.92 714.85,882.03 715.73,880.89"/>
    </edge>
    <edge id=":175045017_2" function="internal">
        <lane id=":175045017_2_0" index="0" disallow="tram rail_urban rail rail_electric rail_fast ship" speed="6.71" length="7.36" shape="706.54,876.28 707.77,876.44 709.97,875.98 712.23,875.31 713.66,874.83"/>
    </edge>
    <edge id=":175045017_3" function="internal">
        <lane id=":175045017_3_0" index="0" disallow="tram rail_urban rail rail_electric rail_fast ship" speed="6.94" length="16.64" shape="706.54,876.28 716.18,889.84"/>
    </edge>
    <edge id=":175045017_4" function="internal">
        <lane id=":175045017_4_0" index="0" disallow="tram rail_urban rail rail_electric rail_fast ship" speed="8.33" length="12.81" shape="704.28,883.11 707.41,881.25 708.97,878.97 710.53,876.69 713.66,874.83"/>
        <lane id=":175045017_4_1" index="1" disallow="tram rail_urban rail rail_electric rail_fast ship" speed="8.33" length="12.81" shape="705.31,886.14 708.45,884.28 710.01,882.00 711.57,879.72 714.70,877.86"/>
        <lane id=":175045017_4_2" index="2" disallow="tram rail_urban rail rail_electric rail_fast ship" speed="8.33" length="12.81" shape="706.35,889.17 709.48,887.30 711.04,885.03 712.60,882.75 715.73,880.89"/>
    </edge>
    <edge id=":175045017_7" function="internal">
        <lane id=":175045017_7_0" index="0" disallow="tram rail_urban rail rail_electric rail_fast ship" speed="7.71" length="7.40" shape="706.35,889.17 709.83,888.23 712.63,888.03 713.58,888.27"/>
    </edge>
    <edge id=":175045017_9" function="internal">
        <lane id=":175045017_9_0" index="0" disallow="tram rail_urban rail rail_electric rail_fast ship" speed="7.71" length="3.11" shape="713.58,888.27 714.74,888.57 716.18,889.84"/>
    </edge>
    <edge id=":175045666_0" function="internal">
        <lane id=":175045666_0_0" index="0" allow="bicycle" speed="4.87" length="5.23" shape="795.55,860.23 795.12,858.82 794.35,857.97 793.24,857.69 791.80,857.97"/>
    </edge>
    <edge id=":175045666_1" function="internal">
        <lane id=":175045666_1_0" index="0" allow="pedestrian delivery bicycle" speed="7.48" length="10.59" shape="795.55,860.23 794.99,855.90 794.81,852.74 795.02,850.73 795.62,849.88"/>
        <lane id=":175045666_1_1" index="1" allow="pedestrian delivery bicycle" speed="6.52" length="7.82" shape="795.55,860.23 795.24,857.30 795.32,855.10 795.79,853.63 796.66,852.90"/>
    </edge>
    <edge id=":175045666_3" function="internal">
        <lane id=":175045666_3_0" index="0" allow="bus bicycle" speed="8.33" length="6.25" shape="797.71,855.92 791.80,857.97"/>
    </edge>
    <edge id=":175045666_4" function="internal">
        <lane id=":175045666_4_0" index="0" allow="bus bicycle" speed="3.65" length="1.44" shape="797.71,855.92 796.31,855.56"/>
    </edge>
    <edge id=":175045666_8" function="internal">
        <lane id=":175045666_8_0" index="0" allow="bus bicycle" speed="3.65" length="3.23" shape="796.31,855.56 795.67,854.93 795.79,854.05 796.66,852.90"/>
    </edge>
    <edge id=":175045666_5" function="internal">
        <lane id=":175045666_5_0" index="0" disallow="tram rail_urban rail rail_electric rail_fast ship" speed="8.33" length="6.25" shape="788.66,848.90 794.57,846.85"/>
        <lane id=":175045666_5_1" index="1" disallow="tram rail_urban rail rail_electric rail_fast ship" speed="8.33" length="6.25" shape="789.71,851.92 795.62,849.88"/>
        <lane id=":175045666_5_2" index="2" disallow="tram rail_urban rail rail_electric rail_fast ship" speed="8.33" length="6.25" shape="790.75,854.94 796.66,852.90"/>
    </edge>
    <edge id=":1997946114_0" function="internal">
        <lane id=":1997946114_0_0" index="0" disallow="tram rail_urban rail rail_electric rail_fast ship" speed="8.33" length="0.83" shape="779.98,964.92 779.84,965.13 779.72,965.24 779.57,965.33 779.34,965.43"/>
    </edge>
    <edge id=":21971878_0" function="internal">
        <lane id=":21971878_0_0" index="0" allow="bus bicycle" speed="8.33" length="0.15" shape="883.04,826.39 882.90,826.44"/>
    </edge>
    <edge id=":21971878_1" function="internal">
        <lane id=":21971878_1_0" index="0" disallow="tram rail_urban rail rail_electric rail_fast ship" speed="8.33" length="0.15" shape="879.76,817.37 879.90,817.32"/>
        <lane id=":21971878_1_1" index="1" disallow="tram rail_urban rail rail_electric rail_fast ship" speed="8.33" length="0.15" shape="880.80,820.39 880.94,820.34"/>
        <lane id=":21971878_1_2" index="2" disallow="tram rail_urban rail rail_electric rail_fast ship" speed="8.33" length="0.15" shape="881.85,823.41 881.99,823.37"/>
    </edge>
    <edge id=":2364610565_0" function="internal">
        <lane id=":2364610565_0_0" index="0" allow="bus bicycle" speed="8.33" length="1.14" shape="602.64,879.26 603.04,880.33"/>
    </edge>
    <edge id=":2392409645_0" function="internal">
        <lane id=":2392409645_0_0" index="0" disallow="tram rail_urban rail rail_electric rail_fast ship" speed="8.33" length="0.24" shape="314.99,803.42 314.71,803.33"/>
        <lane id=":2392409645_0_1" index="1" disallow="tram rail_urban rail rail_electric rail_fast ship" speed="8.33" length="0.24" shape="315.93,800.36 315.76,800.30"/>
    </edge>
    <edge id=":2392409665_0" function="internal">
        <lane id=":2392409665_0_0" index="0" disallow="tram rail_urban rail rail_electric rail_fast ship" speed="8.33" length="0.30" shape="448.72,848.04 448.45,847.95"/>
        <lane id=":2392409665_0_1" index="1" disallow="tram rail_urban rail rail_electric rail_fast ship" speed="8.33" length="0.30" shape="449.73,845.01 449.44,844.91"/>
    </edge>
    <edge id=":2402569198_0" function="internal">
        <lane id=":2402569198_0_0" index="0" disallow="tram rail_urban rail rail_electric rail_fast ship" speed="8.33" length="14.45" shape="611.95,902.65 598.17,898.21"/>
        <lane id=":2402569198_0_1" index="1" disallow="tram rail_urban rail rail_electric rail_fast ship" speed="8.33" length="14.45" shape="612.90,899.60 599.18,895.18"/>
    </edge>
    <edge id=":2402569198_2" function="internal">
        <lane id=":2402569198_2_0" index="0" disallow="tram rail_urban rail rail_electric rail_fast ship" speed="6.39" length="6.87" shape="612.90,899.60 610.41,898.72 608.63,897.85 607.57,897.01 607.24,896.17"/>
    </edge>
    <edge id=":2402569198_3" function="internal">
        <lane id=":2402569198_3_0" index="0" disallow="tram rail_urban rail rail_electric rail_fast ship" speed="7.60" length="9.80" shape="603.82,905.33 603.51,902.93 602.46,900.95 600.68,899.38 598.17,898.21"/>
    </edge>
    <edge id=":2402569198_4" function="internal">
        <lane id=":2402569198_4_0" index="0" disallow="tram rail_urban rail rail_electric rail_fast ship" speed="8.33" length="9.23" shape="603.82,905.33 604.04,896.08"/>
        <lane id=":2402569198_4_1" index="1" disallow="tram rail_urban rail rail_electric rail_fast ship" speed="8.33" length="9.23" shape="607.02,905.39 607.24,896.17"/>
    </edge>
    <edge id=":243854424_0" function="internal">
        <lane id=":243854424_0_0" index="0" disallow="tram rail_urban rail rail_electric rail_fast ship" speed="6.22" length="7.77" shape="761.68,973.54 759.68,974.75 758.47,976.17 758.05,977.80 758.41,979.64"/>
    </edge>
    <edge id=":243854424_1" function="internal">
        <lane id=":243854424_1_0" index="0" disallow="tram rail_urban rail rail_electric rail_fast ship" speed="8.33" length="9.55" shape="761.68,973.54 752.95,977.40"/>
    </edge>
    <edge id=":243854425_0" function="internal">
        <lane id=":243854425_0_0" index="0" disallow="tram rail_urban rail rail_electric rail_fast ship" speed="8.33" length="11.01" shape="719.06,998.49 714.62,988.42"/>
    </edge>
    <edge id=":243854425_1" function="internal">
        <lane id=":243854425_1_0" index="0" disallow="tram rail_urban rail rail_electric rail_fast ship" speed="6.04" length="7.51" shape="720.28,991.97 718.65,992.29 717.16,991.81 715.82,990.52 714.62,988.42"/>
    </edge>
    <edge id=":25207371_0" function="internal">
        <lane id=":25207371_0_0" index="0" disallow="tram rail_urban rail rail_electric rail_fast ship" speed="8.33" length="11.26" shape="741.05,946.13 730.33,942.54"/>
        <lane id=":25207371_0_1" index="1" disallow="tram rail_urban rail rail_electric rail_fast ship" speed="8.33" length="11.26" shape="741.99,943.07 731.37,939.51"/>
    </edge>
    <edge id=":25207371_2" function="internal">
        <lane id=":25207371_2_0" index="0" disallow="tram rail_urban rail rail_electric rail_fast ship" speed="4.88" length="7.28" shape="737.63,939.75 737.62,940.57 736.57,940.81 734.49,940.45 731.37,939.51"/>
    </edge>
    <edge id=":256579523_0" function="internal">
        <lane id=":256579523_0_0" index="0" disallow="tram rail_urban rail rail_electric rail_fast ship" speed="6.18" length="7.25" shape="694.88,946.65 693.28,945.15 691.70,944.36 690.12,944.30 688.55,944.96"/>
    </edge>
    <edge id=":256579523_1" function="internal">
        <lane id=":256579523_1_0" index="0" disallow="tram rail_urban rail rail_electric rail_fast ship" speed="8.33" length="10.39" shape="694.88,946.65 692.55,943.70 691.01,941.21 690.27,939.19 690.32,937.64"/>
    </edge>
    <edge id=":256579523_2" function="internal">
        <lane id=":256579523_2_0" index="0" disallow="tram rail_urban rail rail_electric rail_fast ship" speed="8.33" length="8.17" shape="693.35,938.67 692.53,940.93 691.71,942.41 690.52,943.59 688.55,944.96"/>
    </edge>
    <edge id=":256579523_3" function="internal">
        <lane id=":256579523_3_0" index="0" disallow="tram rail_urban rail rail_electric rail_fast ship" speed="3.65" length="1.44" shape="693.35,938.67 692.20,939.55"/>
    </edge>
    <edge id=":256579523_6" function="internal">
        <lane id=":256579523_6_0" index="0" disallow="tram rail_urban rail rail_electric rail_fast ship" speed="3.65" length="3.23" shape="692.20,939.55 691.32,939.67 690.69,939.03 690.32,937.64"/>
    </edge>
    <edge id=":256579523_4" function="internal">
        <lane id=":256579523_4_0" index="0" disallow="tram rail_urban rail rail_electric rail_fast ship" speed="8.33" length="6.02" shape="686.80,942.28 688.25,941.27 689.12,940.40 689.72,939.30 690.32,937.64"/>
    </edge>
    <edge id=":256579523_5" function="internal">
        <lane id=":256579523_5_0" index="0" disallow="tram rail_urban rail rail_electric rail_fast ship" speed="3.65" length="1.44" shape="686.80,942.28 688.24,942.30"/>
    </edge>
    <edge id=":256579523_7" function="internal">
        <lane id=":256579523_7_0" index="0" disallow="tram rail_urban rail rail_electric rail_fast ship" speed="3.65" length="3.23" shape="688.24,942.30 689.01,942.75 689.12,943.64 688.55,944.96"/>
    </edge>
    <edge id=":260685981_0" function="internal">
        <lane id=":260685981_0_0" index="0" allow="bus bicycle" speed="7.34" length="9.01" shape="600.09,919.07 601.78,918.10 602.96,916.52 603.65,914.33 603.83,911.54"/>
    </edge>
    <edge id=":260685981_1" function="internal">
        <lane id=":260685981_1_0" index="0" allow="bus bicycle" speed="8.33" length="12.61" shape="600.09,919.07 611.99,914.88"/>
    </edge>
    <edge id=":260685981_2" function="internal">
        <lane id=":260685981_2_0" index="0" disallow="tram rail_urban rail rail_electric rail_fast ship" speed="8.33" length="3.35" shape="601.13,922.09 603.78,920.65 603.99,920.40"/>
    </edge>
    <edge id=":260685981_3" function="internal">
        <lane id=":260685981_3_0" index="0" disallow="tram rail_urban rail rail_electric rail_fast ship" speed="8.33" length="12.68" shape="601.13,922.09 613.07,917.89"/>
        <lane id=":260685981_3_1" index="1" disallow="tram rail_urban rail rail_electric rail_fast ship" speed="8.33" length="12.68" shape="602.16,925.12 614.15,920.90"/>
    </edge>
    <edge id=":260685981_5" function="internal">
        <lane id=":260685981_5_0" index="0" disallow="tram rail_urban rail rail_electric rail_fast ship" speed="6.00" length="6.99" shape="602.16,925.12 604.34,924.60 606.09,924.66 607.42,925.30 608.31,926.53"/>
    </edge>
    <edge id=":260685981_6" function="internal">
        <lane id=":260685981_6_0" index="0" disallow="tram rail_urban rail rail_electric rail_fast ship" speed="8.33" length="9.73" shape="603.99,920.40 605.65,918.40 606.73,915.34 607.03,911.47"/>
    </edge>
    <edge id=":26402096_0" function="internal">