<?xml version="1.0" encoding="UTF-8"?>

<!-- generated on 2024-02-12 00:11:13 by Eclipse SUMO netedit Version 1.19.0
<configuration xmlns:xsi="http://www.w3.org/2001/XMLSchema-instance" xsi:noNamespaceSchemaLocation="http://sumo.dlr.de/xsd/neteditConfiguration.xsd">

    <input>
        <sumocfg-file value="/Users/iwakiryo2/Documents/01Research/01Source/BeamTrackingAlgorithm/datasource/paris.sumocfg"/>
        <route-files value="/Users/iwakiryo2/Documents/01Research/01Source/BeamTrackingAlgorithm/datasource/paris.rou.xml"/>
        <sumo-net-file value="/Users/iwakiryo2/Documents/01Research/01Source/BeamTrackingAlgorithm/datasource/paris.net.xml"/>
    </input>

    <output>
        <output-file value="/Users/iwakiryo2/Documents/01Research/01Source/BeamTrackingAlgorithm/datasource/paris.net.xml"/>
    </output>

    <processing>
        <geometry.min-radius.fix.railways value="false"/>
        <geometry.max-grade.fix value="false"/>
        <offset.disable-normalization value="true"/>
        <lefthand value="0"/>
    </processing>

    <junctions>
        <no-turnarounds value="true"/>
        <junctions.corner-detail value="5"/>
        <junctions.limit-turn-speed value="5.50"/>
        <rectangular-lane-cut value="0"/>
    </junctions>

    <pedestrian>
        <walkingareas value="0"/>
    </pedestrian>

</configuration>
-->

<net version="1.16" junctionCornerDetail="5" limitTurnSpeed="5.50" xmlns:xsi="http://www.w3.org/2001/XMLSchema-instance" xsi:noNamespaceSchemaLocation="http://sumo.dlr.de/xsd/net_file.xsd">

    <location netOffset="-444740.87,-5411223.95" convBoundary="0.00,0.00,8919.63,4201.62" origBoundary="2.246167,48.852252,2.368303,48.889316" projParameter="+proj=utm +zone=31 +ellps=WGS84 +datum=WGS84 +units=m +no_defs"/>

    <type id="highway.cycleway" priority="1" numLanes="1" speed="5.56" allow="bicycle" oneway="0" width="2.00"/>
    <type id="highway.footway" priority="1" numLanes="1" speed="2.78" allow="pedestrian" oneway="1" width="2.00"/>
    <type id="highway.primary" priority="12" numLanes="2" speed="27.78" disallow="tram rail_urban rail rail_electric rail_fast ship" oneway="0"/>
    <type id="highway.residential" priority="3" numLanes="1" speed="13.89" disallow="tram rail_urban rail rail_electric rail_fast ship" oneway="0"/>
    <type id="highway.secondary" priority="11" numLanes="1" speed="27.78" disallow="tram rail_urban rail rail_electric rail_fast ship" oneway="0"/>
    <type id="highway.service" priority="1" numLanes="1" speed="5.56" allow="pedestrian delivery bicycle" oneway="0"/>
    <type id="highway.steps" priority="1" numLanes="1" speed="1.39" allow="pedestrian" oneway="1" width="2.00"/>
    <type id="highway.tertiary" priority="10" numLanes="1" speed="22.22" disallow="tram rail_urban rail rail_electric rail_fast ship" oneway="0"/>
    <type id="highway.unclassified" priority="4" numLanes="1" speed="13.89" disallow="tram rail_urban rail rail_electric rail_fast ship" oneway="0"/>
    <type id="railway.rail" priority="20" numLanes="1" speed="44.44" allow="rail" oneway="1"/>
    <type id="railway.subway" priority="18" numLanes="1" speed="27.78" allow="rail_urban" oneway="1"/>

    <edge id=":10726236069_0" function="internal">
        <lane id=":10726236069_0_0" index="0" allow="rail rail_electric rail_fast" speed="23.61" length="0.10" shape="3432.51,2513.01 3432.51,2513.01"/>
    </edge>
    <edge id=":10726236070_0" function="internal">
        <lane id=":10726236070_0_0" index="0" allow="rail rail_electric rail_fast" speed="23.61" length="0.10" shape="3433.09,2516.18 3433.09,2516.18"/>
    </edge>
    <edge id=":10750309673_0" function="internal">
        <lane id=":10750309673_0_0" index="0" allow="bicycle" speed="3.80" length="2.79" width="2.00" shape="3717.12,2378.81 3716.70,2378.53 3716.14,2378.82 3715.50,2379.35 3714.83,2379.83"/>
    </edge>
    <edge id=":10750309673_1" function="internal">
        <lane id=":10750309673_1_0" index="0" allow="bicycle" speed="5.56" length="23.57" width="2.00" shape="3717.12,2378.81 3706.43,2357.80"/>
    </edge>
    <edge id=":10750309673_2" function="internal">
        <lane id=":10750309673_2_0" index="0" allow="bicycle" speed="7.68" length="14.45" width="2.00" shape="3717.12,2378.81 3714.36,2373.22 3712.62,2369.14 3711.90,2366.57 3712.19,2365.50"/>
    </edge>
    <edge id=":10750309673_3" function="internal">
        <lane id=":10750309673_3_0" index="0" allow="bicycle" speed="2.89" length="2.92" width="2.00" shape="3717.12,2378.81 3717.22,2377.92 3717.55,2377.47 3718.11,2377.46 3718.90,2377.90"/>
    </edge>
    <edge id=":10750309673_4" function="internal">
        <lane id=":10750309673_4_0" index="0" allow="bicycle" speed="3.35" length="1.76" width="2.00" shape="3717.27,2378.55 3718.90,2377.90"/>
    </edge>
    <edge id=":10750309673_5" function="internal">
        <lane id=":10750309673_5_0" index="0" disallow="tram rail_urban rail rail_electric rail_fast ship" speed="13.89" length="3.34" shape="3717.05,2377.99 3716.28,2378.32 3715.78,2378.59 3715.29,2378.89 3714.56,2379.30"/>
        <lane id=":10750309673_5_1" index="1" disallow="tram rail_urban rail rail_electric rail_fast ship" speed="13.89" length="3.34" shape="3715.89,2375.01 3715.03,2375.37 3714.46,2375.68 3713.90,2376.01 3713.08,2376.46"/>
        <lane id=":10750309673_5_2" index="2" disallow="tram rail_urban rail rail_electric rail_fast ship" speed="13.89" length="3.34" shape="3714.73,2372.02 3713.77,2372.43 3713.14,2372.76 3712.52,2373.12 3711.60,2373.62"/>
        <lane id=":10750309673_5_3" index="3" disallow="tram rail_urban rail rail_electric rail_fast ship" speed="13.89" length="3.34" shape="3713.57,2369.04 3712.51,2369.48 3711.81,2369.84 3711.13,2370.24 3710.12,2370.79"/>
    </edge>
    <edge id=":10750309673_9" function="internal">
        <lane id=":10750309673_9_0" index="0" allow="bicycle" speed="7.93" length="1.85" width="2.00" shape="3713.35,2368.48 3712.43,2368.01 3711.94,2367.36"/>
    </edge>
    <edge id=":10750309673_20" function="internal">
        <lane id=":10750309673_20_0" index="0" allow="bicycle" speed="7.93" length="11.04" width="2.00" shape="3711.94,2367.36 3710.97,2366.07 3708.97,2362.67 3706.43,2357.80"/>
    </edge>
    <edge id=":10750309673_10" function="internal">
        <lane id=":10750309673_10_0" index="0" allow="bicycle" speed="9.72" length="0.72" width="2.00" shape="3708.22,2356.91 3708.31,2356.98 3708.41,2356.87 3708.54,2356.69 3708.72,2356.55"/>
    </edge>
    <edge id=":10750309673_11" function="internal">
        <lane id=":10750309673_11_0" index="0" allow="bicycle" speed="5.56" length="23.55" width="2.00" shape="3708.22,2356.91 3718.90,2377.90"/>
    </edge>
    <edge id=":10750309673_12" function="internal">
        <lane id=":10750309673_12_0" index="0" allow="bicycle" speed="8.30" length="15.58" width="2.00" shape="3708.22,2356.91 3710.67,2362.43 3711.86,2366.67 3711.77,2369.64 3710.40,2371.32"/>
    </edge>
    <edge id=":10750309673_13" function="internal">
        <lane id=":10750309673_13_0" index="0" allow="bicycle" speed="2.89" length="2.92" width="2.00" shape="3708.22,2356.91 3708.11,2357.80 3707.77,2358.25 3707.21,2358.25 3706.43,2357.80"/>
    </edge>
    <edge id=":10750309673_14" function="internal">
        <lane id=":10750309673_14_0" index="0" allow="bicycle" speed="4.13" length="2.99" width="2.00" shape="3703.94,2358.90 3704.76,2358.66 3705.68,2358.51 3706.35,2358.29 3706.43,2357.80"/>
    </edge>
    <edge id=":10750309673_15" function="internal">
        <lane id=":10750309673_15_0" index="0" disallow="tram rail_urban rail rail_electric rail_fast ship" speed="13.89" length="4.74" shape="3704.22,2359.43 3705.59,2358.69 3706.53,2358.17 3707.49,2357.71 3708.93,2357.11"/>
        <lane id=":10750309673_15_1" index="1" disallow="tram rail_urban rail rail_electric rail_fast ship" speed="13.89" length="4.74" shape="3705.69,2362.27 3706.98,2361.58 3707.85,2361.09 3708.75,2360.65 3710.09,2360.09"/>
        <lane id=":10750309673_15_2" index="2" disallow="tram rail_urban rail rail_electric rail_fast ship" speed="13.89" length="4.74" shape="3707.17,2365.11 3708.36,2364.46 3709.17,2364.01 3710.00,2363.59 3711.25,2363.08"/>
        <lane id=":10750309673_15_3" index="3" disallow="tram rail_urban rail rail_electric rail_fast ship" speed="13.89" length="4.74" shape="3708.65,2367.95 3709.75,2367.35 3710.49,2366.92 3711.26,2366.54 3712.41,2366.06"/>
    </edge>
    <edge id=":10750309673_19" function="internal">
        <lane id=":10750309673_19_0" index="0" allow="bicycle" speed="8.14" length="0.44" width="2.00" shape="3708.92,2368.48 3709.36,2368.44"/>
    </edge>
    <edge id=":10750309673_21" function="internal">
        <lane id=":10750309673_21_0" index="0" allow="bicycle" speed="8.14" length="14.33" width="2.00" shape="3709.36,2368.44 3711.06,2368.28 3713.44,2369.78 3716.05,2372.99 3718.90,2377.90"/>
    </edge>
    <edge id=":11010529699_0" function="internal">
        <lane id=":11010529699_0_0" index="0" allow="bicycle" speed="5.56" length="5.03" width="2.00" shape="3406.84,2406.59 3405.96,2411.55"/>
    </edge>
    <edge id=":11010529699_1" function="internal">
        <lane id=":11010529699_1_0" index="0" allow="bicycle" speed="2.89" length="1.27" width="2.00" shape="3406.84,2406.59 3406.21,2407.24 3405.86,2407.35"/>
    </edge>
    <edge id=":11010529699_4" function="internal">
        <lane id=":11010529699_4_0" index="0" allow="bicycle" speed="2.89" length="1.65" width="2.00" shape="3405.86,2407.35 3405.68,2407.40 3405.23,2407.07 3404.87,2406.24"/>
    </edge>
    <edge id=":11010529699_2" function="internal">
        <lane id=":11010529699_2_0" index="0" allow="bicycle" speed="5.56" length="5.04" width="2.00" shape="3403.99,2411.20 3404.87,2406.24"/>
    </edge>
    <edge id=":11010529699_3" function="internal">
        <lane id=":11010529699_3_0" index="0" allow="bicycle" speed="2.89" length="1.27" width="2.00" shape="3403.99,2411.20 3404.61,2410.55 3404.97,2410.44"/>
    </edge>
    <edge id=":11010529699_5" function="internal">
        <lane id=":11010529699_5_0" index="0" allow="bicycle" speed="2.89" length="1.65" width="2.00" shape="3404.97,2410.44 3405.15,2410.39 3405.60,2410.72 3405.96,2411.55"/>
    </edge>
    <edge id=":11012358020_0" function="internal">
        <lane id=":11012358020_0_0" index="0" disallow="tram rail_urban rail rail_electric rail_fast ship" speed="8.33" length="5.08" shape="3433.57,2542.21 3430.63,2538.06"/>
    </edge>
    <edge id=":11012358021_0" function="internal">
        <lane id=":11012358021_0_0" index="0" allow="bicycle" speed="5.56" length="5.08" width="2.00" shape="3435.46,2541.01 3432.53,2536.85"/>
    </edge>
    <edge id=":11012358021_1" function="internal">
        <lane id=":11012358021_1_0" index="0" allow="bicycle" speed="2.89" length="1.27" width="2.00" shape="3435.46,2541.01 3435.44,2540.11 3435.61,2539.78"/>
    </edge>
    <edge id=":11012358021_4" function="internal">
        <lane id=":11012358021_4_0" index="0" allow="bicycle" speed="2.89" length="1.65" width="2.00" shape="3435.61,2539.78 3435.70,2539.62 3436.25,2539.53 3437.09,2539.86"/>
    </edge>
    <edge id=":11012358021_2" function="internal">
        <lane id=":11012358021_2_0" index="0" allow="bicycle" speed="5.56" length="5.08" width="2.00" shape="3434.17,2535.70 3437.09,2539.86"/>
    </edge>
    <edge id=":11012358021_3" function="internal">
        <lane id=":11012358021_3_0" index="0" allow="bicycle" speed="2.89" length="1.27" width="2.00" shape="3434.17,2535.70 3434.19,2536.60 3434.02,2536.93"/>
    </edge>
    <edge id=":11012358021_5" function="internal">
        <lane id=":11012358021_5_0" index="0" allow="bicycle" speed="2.89" length="1.65" width="2.00" shape="3434.02,2536.93 3433.93,2537.09 3433.37,2537.18 3432.53,2536.85"/>
    </edge>
    <edge id=":11012358113_0" function="internal">
        <lane id=":11012358113_0_0" index="0" allow="bus bicycle" speed="8.33" length="0.28" shape="3526.58,2842.35 3526.55,2842.63"/>
    </edge>
    <edge id=":11012358113_1" function="internal">
        <lane id=":11012358113_1_0" index="0" disallow="tram rail_urban rail rail_electric rail_fast ship" speed="8.33" length="0.31" shape="3520.18,2841.97 3520.21,2841.65"/>
        <lane id=":11012358113_1_1" index="1" disallow="tram rail_urban rail rail_electric rail_fast ship" speed="8.33" length="0.31" shape="3523.36,2842.30 3523.40,2842.00"/>
    </edge>
    <edge id=":11012446365_0" function="internal">
        <lane id=":11012446365_0_0" index="0" disallow="tram rail_urban rail rail_electric rail_fast ship" speed="8.33" length="6.64" shape="3746.45,2382.91 3751.46,2387.26"/>
    </edge>
    <edge id=":11013849203_0" function="internal">
        <lane id=":11013849203_0_0" index="0" disallow="tram rail_urban rail rail_electric rail_fast ship" speed="8.33" length="0.26" shape="2816.47,2273.45 2816.73,2273.49"/>
    </edge>
    <edge id=":11013849213_0" function="internal">
        <lane id=":11013849213_0_0" index="0" disallow="tram rail_urban rail rail_electric rail_fast ship" speed="8.33" length="5.64" shape="3350.70,2389.77 3355.05,2393.35"/>
    </edge>
    <edge id=":11015526648_0" function="internal">
        <lane id=":11015526648_0_0" index="0" allow="bus bicycle" speed="13.89" length="0.30" shape="3298.24,2581.22 3297.97,2581.36"/>
        <lane id=":11015526648_0_1" index="1" disallow="tram rail_urban rail rail_electric rail_fast ship" speed="13.89" length="0.30" shape="3296.82,2578.36 3296.55,2578.49"/>
        <lane id=":11015526648_0_2" index="2" disallow="tram rail_urban rail rail_electric rail_fast ship" speed="13.89" length="0.30" shape="3295.40,2575.49 3295.13,2575.62"/>
    </edge>
    <edge id=":11015526648_3" function="internal">
        <lane id=":11015526648_3_0" index="0" disallow="tram rail_urban rail rail_electric rail_fast ship" speed="13.89" length="0.30" shape="3290.88,2567.01 3291.15,2566.88"/>
        <lane id=":11015526648_3_1" index="1" disallow="tram rail_urban rail rail_electric rail_fast ship" speed="13.89" length="0.30" shape="3292.30,2569.88 3292.57,2569.75"/>
        <lane id=":11015526648_3_2" index="2" disallow="tram rail_urban rail rail_electric rail_fast ship" speed="13.89" length="0.30" shape="3293.72,2572.75 3293.99,2572.62"/>
    </edge>
    <edge id=":11015558770_0" function="internal">
        <lane id=":11015558770_0_0" index="0" allow="bicycle" speed="5.56" length="4.67" width="2.00" shape="3424.96,2360.15 3422.59,2364.17"/>
    </edge>
    <edge id=":11015558770_1" function="internal">
        <lane id=":11015558770_1_0" index="0" allow="bicycle" speed="2.89" length="1.27" width="2.00" shape="3424.96,2360.15 3424.15,2360.54 3423.78,2360.51"/>
    </edge>
    <edge id=":11015558770_4" function="internal">
        <lane id=":11015558770_4_0" index="0" allow="bicycle" speed="2.89" length="1.65" width="2.00" shape="3423.78,2360.51 3423.59,2360.50 3423.29,2360.03 3423.24,2359.13"/>
    </edge>
    <edge id=":11015558770_2" function="internal">
        <lane id=":11015558770_2_0" index="0" allow="bicycle" speed="5.56" length="4.67" width="2.00" shape="3420.87,2363.15 3423.24,2359.13"/>
    </edge>
    <edge id=":11015558770_3" function="internal">
        <lane id=":11015558770_3_0" index="0" allow="bicycle" speed="2.89" length="1.27" width="2.00" shape="3420.87,2363.15 3421.68,2362.76 3422.05,2362.78"/>
    </edge>
    <edge id=":11015558770_5" function="internal">
        <lane id=":11015558770_5_0" index="0" allow="bicycle" speed="2.89" length="1.65" width="2.00" shape="3422.05,2362.78 3422.24,2362.80 3422.54,2363.27 3422.59,2364.17"/>
    </edge>
    <edge id=":11015661164_0" function="internal">
        <lane id=":11015661164_0_0" index="0" allow="pedestrian delivery bicycle" speed="5.56" length="9.52" shape="3707.37,2543.35 3706.35,2540.82 3706.21,2538.91 3706.65,2536.92 3707.38,2534.18"/>
    </edge>
    <edge id=":11070645086_0" function="internal">
        <lane id=":11070645086_0_0" index="0" disallow="tram rail_urban rail rail_electric rail_fast ship" speed="13.89" length="6.43" shape="3436.21,2516.70 3430.18,2519.81"/>
        <lane id=":11070645086_0_1" index="1" disallow="tram rail_urban rail rail_electric rail_fast ship" speed="13.89" length="6.43" shape="3434.64,2513.91 3428.82,2516.91"/>
        <lane id=":11070645086_0_2" index="2" disallow="tram rail_urban rail rail_electric rail_fast ship" speed="13.89" length="6.43" shape="3433.07,2511.13 3427.46,2514.01"/>
        <lane id=":11070645086_0_3" index="3" disallow="tram rail_urban rail rail_electric rail_fast ship" speed="13.89" length="6.43" shape="3431.50,2508.34 3426.10,2511.12"/>
    </edge>
    <edge id=":11070645086_4" function="internal">
        <lane id=":11070645086_4_0" index="0" disallow="tram rail_urban rail rail_electric rail_fast ship" speed="13.89" length="5.48" shape="3420.67,2499.53 3425.22,2497.18"/>
        <lane id=":11070645086_4_1" index="1" disallow="tram rail_urban rail rail_electric rail_fast ship" speed="13.89" length="5.48" shape="3422.03,2502.42 3426.79,2499.97"/>
        <lane id=":11070645086_4_2" index="2" disallow="tram rail_urban rail rail_electric rail_fast ship" speed="13.89" length="5.48" shape="3423.39,2505.32 3428.36,2502.76"/>
        <lane id=":11070645086_4_3" index="3" disallow="tram rail_urban rail rail_electric rail_fast ship" speed="13.89" length="5.48" shape="3424.74,2508.22 3429.93,2505.55"/>
    </edge>
    <edge id=":11070666341_0" function="internal">
        <lane id=":11070666341_0_0" index="0" allow="bicycle" speed="5.56" length="5.09" width="2.00" shape="3498.29,2590.53 3493.72,2588.30"/>
    </edge>
    <edge id=":11070666341_1" function="internal">
        <lane id=":11070666341_1_0" index="0" allow="bicycle" speed="2.89" length="1.27" width="2.00" shape="3498.29,2590.53 3497.84,2589.75 3497.83,2589.38"/>
    </edge>
    <edge id=":11070666341_4" function="internal">
        <lane id=":11070666341_4_0" index="0" allow="bicycle" speed="2.89" length="1.65" width="2.00" shape="3497.83,2589.38 3497.83,2589.19 3498.27,2588.85 3499.17,2588.73"/>
    </edge>
    <edge id=":11070666341_2" function="internal">
        <lane id=":11070666341_2_0" index="0" allow="bicycle" speed="5.56" length="5.08" width="2.00" shape="3494.59,2586.51 3499.17,2588.73"/>
    </edge>
    <edge id=":11070666341_3" function="internal">
        <lane id=":11070666341_3_0" index="0" allow="bicycle" speed="2.89" length="1.27" width="2.00" shape="3494.59,2586.51 3495.05,2587.28 3495.05,2587.65"/>
    </edge>
    <edge id=":11070666341_5" function="internal">
        <lane id=":11070666341_5_0" index="0" allow="bicycle" speed="2.89" length="1.65" width="2.00" shape="3495.05,2587.65 3495.05,2587.84 3494.61,2588.18 3493.72,2588.30"/>
    </edge>
    <edge id=":11070666343_0" function="internal">
        <lane id=":11070666343_0_0" index="0" allow="bicycle" speed="5.56" length="5.31" width="2.00" shape="3474.57,2577.52 3470.26,2574.40"/>
    </edge>
    <edge id=":11070666343_1" function="internal">
        <lane id=":11070666343_1_0" index="0" allow="bicycle" speed="2.89" length="1.27" width="2.00" shape="3474.57,2577.52 3474.26,2576.67 3474.32,2576.31"/>
    </edge>
    <edge id=":11070666343_4" function="internal">
        <lane id=":11070666343_4_0" index="0" allow="bicycle" speed="2.89" length="1.66" width="2.00" shape="3474.32,2576.31 3474.35,2576.12 3474.84,2575.86 3475.75,2575.90"/>
    </edge>
    <edge id=":11070666343_2" function="internal">
        <lane id=":11070666343_2_0" index="0" allow="bicycle" speed="5.56" length="5.32" width="2.00" shape="3471.44,2572.78 3475.75,2575.90"/>
    </edge>
    <edge id=":11070666343_3" function="internal">
        <lane id=":11070666343_3_0" index="0" allow="bicycle" speed="2.89" length="1.27" width="2.00" shape="3471.44,2572.78 3471.75,2573.63 3471.69,2573.99"/>
    </edge>
    <edge id=":11070666343_5" function="internal">
        <lane id=":11070666343_5_0" index="0" allow="bicycle" speed="2.89" length="1.65" width="2.00" shape="3471.69,2573.99 3471.66,2574.18 3471.17,2574.44 3470.26,2574.40"/>
    </edge>
    <edge id=":11070666344_0" function="internal">
        <lane id=":11070666344_0_0" index="0" allow="bicycle" speed="5.56" length="5.11" width="2.00" shape="3408.97,2490.47 3407.37,2485.61"/>
    </edge>
    <edge id=":11070666344_1" function="internal">
        <lane id=":11070666344_1_0" index="0" allow="bicycle" speed="2.89" length="1.27" width="2.00" shape="3408.97,2490.47 3409.21,2489.60 3409.48,2489.34"/>
    </edge>
    <edge id=":11070666344_4" function="internal">
        <lane id=":11070666344_4_0" index="0" allow="bicycle" speed="2.89" length="1.65" width="2.00" shape="3409.48,2489.34 3409.61,2489.21 3410.16,2489.29 3410.87,2489.84"/>
    </edge>
    <edge id=":11070666344_2" function="internal">
        <lane id=":11070666344_2_0" index="0" allow="bicycle" speed="5.56" length="5.11" width="2.00" shape="3409.27,2484.99 3410.87,2489.84"/>
    </edge>
    <edge id=":11070666344_3" function="internal">
        <lane id=":11070666344_3_0" index="0" allow="bicycle" speed="2.89" length="1.27" width="2.00" shape="3409.27,2484.99 3409.03,2485.86 3408.77,2486.12"/>
    </edge>
    <edge id=":11070666344_5" function="internal">
        <lane id=":11070666344_5_0" index="0" allow="bicycle" speed="2.89" length="1.65" width="2.00" shape="3408.77,2486.12 3408.64,2486.25 3408.08,2486.17 3407.37,2485.61"/>
    </edge>
    <edge id=":11070685414_0" function="internal">
        <lane id=":11070685414_0_0" index="0" allow="bicycle" speed="5.56" length="0.30" width="2.00" shape="3538.01,2602.56 3537.72,2602.50"/>
    </edge>
    <edge id=":11070685414_1" function="internal">
        <lane id=":11070685414_1_0" index="0" allow="bicycle" speed="5.56" length="0.30" width="2.00" shape="3538.11,2600.54 3538.41,2600.60"/>
    </edge>
    <edge id=":11070685415_0" function="internal">
        <lane id=":11070685415_0_0" index="0" allow="bicycle" speed="5.56" length="0.10" width="2.00" shape="3561.81,2605.40 3561.81,2605.40"/>
    </edge>
    <edge id=":11070685415_1" function="internal">
        <lane id=":11070685415_1_0" index="0" allow="bicycle" speed="5.56" length="0.10" width="2.00" shape="3561.95,2603.40 3561.95,2603.40"/>
    </edge>
    <edge id=":11070685417_0" function="internal">
        <lane id=":11070685417_0_0" index="0" allow="bicycle" speed="5.56" length="0.30" width="2.00" shape="3625.79,2593.75 3625.51,2593.86"/>
    </edge>
    <edge id=":11070685417_1" function="internal">
        <lane id=":11070685417_1_0" index="0" allow="bicycle" speed="5.56" length="0.30" width="2.00" shape="3624.80,2591.99 3625.09,2591.88"/>
    </edge>
    <edge id=":11070685419_0" function="internal">
        <lane id=":11070685419_0_0" index="0" allow="bicycle" speed="5.56" length="5.14" width="2.00" shape="3655.07,2580.46 3653.78,2581.26 3652.84,2581.71 3651.86,2582.08 3650.46,2582.70"/>
    </edge>
    <edge id=":11070685419_1" function="internal">
        <lane id=":11070685419_1_0" index="0" allow="bicycle" speed="2.90" length="1.08" width="2.00" shape="3655.07,2580.46 3654.17,2580.33 3654.04,2580.23"/>
    </edge>
    <edge id=":11070685419_4" function="internal">
        <lane id=":11070685419_4_0" index="0" allow="bicycle" speed="2.90" length="1.88" width="2.00" shape="3654.04,2580.23 3653.72,2579.98 3653.74,2579.42 3654.20,2578.63"/>
    </edge>
    <edge id=":11070685419_2" function="internal">
        <lane id=":11070685419_2_0" index="0" allow="bicycle" speed="5.56" length="5.15" width="2.00" shape="3649.59,2580.90 3650.99,2580.28 3651.97,2579.89 3652.91,2579.44 3654.20,2578.63"/>
    </edge>
    <edge id=":11070685419_3" function="internal">
        <lane id=":11070685419_3_0" index="0" allow="bicycle" speed="2.89" length="1.33" width="2.00" shape="3649.59,2580.90 3650.48,2581.02 3650.82,2581.28"/>
    </edge>
    <edge id=":11070685419_5" function="internal">
        <lane id=":11070685419_5_0" index="0" allow="bicycle" speed="2.89" length="1.59" width="2.00" shape="3650.82,2581.28 3650.93,2581.36 3650.92,2581.92 3650.46,2582.70"/>
    </edge>
    <edge id=":11070685429_0" function="internal">
        <lane id=":11070685429_0_0" index="0" allow="bicycle" speed="5.56" length="5.17" width="2.00" shape="3715.98,2511.22 3715.32,2512.60 3714.78,2513.50 3714.19,2514.37 3713.37,2515.67"/>
    </edge>
    <edge id=":11070685429_1" function="internal">
        <lane id=":11070685429_1_0" index="0" allow="bicycle" speed="2.89" length="1.11" width="2.00" shape="3715.98,2511.22 3715.16,2511.61 3714.96,2511.59"/>
    </edge>
    <edge id=":11070685429_4" function="internal">
        <lane id=":11070685429_4_0" index="0" allow="bicycle" speed="2.89" length="1.83" width="2.00" shape="3714.96,2511.59 3714.60,2511.56 3714.30,2511.09 3714.26,2510.18"/>
    </edge>
    <edge id=":11070685429_2" function="internal">
        <lane id=":11070685429_2_0" index="0" allow="bicycle" speed="5.56" length="5.17" width="2.00" shape="3711.66,2514.64 3712.48,2513.34 3713.06,2512.46 3713.60,2511.56 3714.26,2510.18"/>
    </edge>
    <edge id=":11070685429_3" function="internal">
        <lane id=":11070685429_3_0" index="0" allow="bicycle" speed="2.89" length="1.31" width="2.00" shape="3711.66,2514.64 3712.47,2514.25 3712.88,2514.29"/>
    </edge>
    <edge id=":11070685429_5" function="internal">
        <lane id=":11070685429_5_0" index="0" allow="bicycle" speed="2.89" length="1.61" width="2.00" shape="3712.88,2514.29 3713.03,2514.30 3713.33,2514.77 3713.37,2515.67"/>
    </edge>
    <edge id=":11070685436_0" function="internal">
        <lane id=":11070685436_0_0" index="0" allow="bicycle" speed="5.56" length="0.30" width="2.00" shape="3637.26,2292.91 3636.99,2292.79"/>
    </edge>
    <edge id=":11070685436_1" function="internal">
        <lane id=":11070685436_1_0" index="0" allow="bicycle" speed="5.56" length="0.31" width="2.00" shape="3637.78,2290.95 3638.06,2291.07"/>
    </edge>
    <edge id=":11070741758_0" function="internal">
        <lane id=":11070741758_0_0" index="0" allow="bicycle" speed="5.56" length="5.28" width="2.00" shape="3699.26,2538.31 3696.02,2542.47"/>
    </edge>
    <edge id=":11070741758_1" function="internal">
        <lane id=":11070741758_1_0" index="0" allow="bicycle" speed="2.89" length="1.27" width="2.00" shape="3699.26,2538.31 3698.41,2538.60 3698.05,2538.52"/>
    </edge>
    <edge id=":11070741758_4" function="internal">
        <lane id=":11070741758_4_0" index="0" allow="bicycle" speed="2.89" length="1.65" width="2.00" shape="3698.05,2538.52 3697.86,2538.49 3697.62,2537.98 3697.69,2537.08"/>
    </edge>
    <edge id=":11070741758_2" function="internal">
        <lane id=":11070741758_2_0" index="0" allow="bicycle" speed="5.56" length="5.28" width="2.00" shape="3694.44,2541.24 3697.69,2537.08"/>
    </edge>
    <edge id=":11070741758_3" function="internal">
        <lane id=":11070741758_3_0" index="0" allow="bicycle" speed="2.89" length="1.27" width="2.00" shape="3694.44,2541.24 3695.30,2540.96 3695.66,2541.03"/>
    </edge>
    <edge id=":11070741758_5" function="internal">
        <lane id=":11070741758_5_0" index="0" allow="bicycle" speed="2.89" length="1.65" width="2.00" shape="3695.66,2541.03 3695.84,2541.07 3696.08,2541.57 3696.02,2542.47"/>
    </edge>
    <edge id=":11070741760_0" function="internal">
        <lane id=":11070741760_0_0" index="0" allow="bicycle" speed="5.56" length="5.03" width="2.00" shape="3728.16,2469.03 3727.85,2474.04"/>
    </edge>
    <edge id=":11070741760_1" function="internal">
        <lane id=":11070741760_1_0" index="0" allow="bicycle" speed="2.89" length="1.27" width="2.00" shape="3728.16,2469.03 3727.61,2469.75 3727.27,2469.89"/>
    </edge>
    <edge id=":11070741760_4" function="internal">
        <lane id=":11070741760_4_0" index="0" allow="bicycle" speed="2.89" length="1.65" width="2.00" shape="3727.27,2469.89 3727.10,2469.97 3726.61,2469.69 3726.16,2468.91"/>
    </edge>
    <edge id=":11070741760_2" function="internal">
        <lane id=":11070741760_2_0" index="0" allow="bicycle" speed="5.56" length="5.02" width="2.00" shape="3725.86,2473.92 3726.16,2468.91"/>
    </edge>
    <edge id=":11070741760_3" function="internal">
        <lane id=":11070741760_3_0" index="0" allow="bicycle" speed="2.89" length="1.27" width="2.00" shape="3725.86,2473.92 3726.40,2473.20 3726.74,2473.06"/>
    </edge>
    <edge id=":11070741760_5" function="internal">
        <lane id=":11070741760_5_0" index="0" allow="bicycle" speed="2.89" length="1.65" width="2.00" shape="3726.74,2473.06 3726.92,2472.98 3727.40,2473.26 3727.85,2474.04"/>
    </edge>
    <edge id=":11071342251_0" function="internal">
        <lane id=":11071342251_0_0" index="0" allow="bicycle" speed="5.56" length="5.33" width="2.00" shape="3403.56,2433.35 3403.31,2438.67"/>
    </edge>
    <edge id=":11071342251_1" function="internal">
        <lane id=":11071342251_1_0" index="0" allow="bicycle" speed="2.89" length="1.28" width="2.00" shape="3403.56,2433.35 3403.03,2434.07 3402.69,2434.23"/>
    </edge>
    <edge id=":11071342251_4" function="internal">
        <lane id=":11071342251_4_0" index="0" allow="bicycle" speed="2.89" length="1.64" width="2.00" shape="3402.69,2434.23 3402.52,2434.30 3402.03,2434.03 3401.57,2433.26"/>
    </edge>
    <edge id=":11071342251_2" function="internal">
        <lane id=":11071342251_2_0" index="0" allow="bicycle" speed="5.56" length="5.31" width="2.00" shape="3401.31,2438.57 3401.57,2433.26"/>
    </edge>
    <edge id=":11071342251_3" function="internal">
        <lane id=":11071342251_3_0" index="0" allow="bicycle" speed="2.89" length="1.26" width="2.00" shape="3401.31,2438.57 3401.85,2437.84 3402.18,2437.70"/>
    </edge>
    <edge id=":11071342251_5" function="internal">
        <lane id=":11071342251_5_0" index="0" allow="bicycle" speed="2.89" length="1.66" width="2.00" shape="3402.18,2437.70 3402.36,2437.62 3402.85,2437.90 3403.31,2438.67"/>
    </edge>