<?xml version="1.0" encoding="UTF-8"?>

<!-- generated on 2024-02-01 22:39:15 by Eclipse SUMO sumo Version 1.19.0
-->

<configuration xmlns:xsi="http://www.w3.org/2001/XMLSchema-instance" xsi:noNamespaceSchemaLocation="http://sumo.dlr.de/xsd/sumoConfiguration.xsd">

    <input>
        <net-file value="shinobazu2.net.xml"/>
        <route-files value="shinobazu2.rou.xml"/>
    </input>

    <time>
        <step-length value="0.01"/>
    </time>

</configuration>
