<?xml version="1.0" encoding="UTF-8"?>

<!-- generated on 2024-02-02 16:30:46 by Eclipse SUMO netedit Version 1.19.0
-->

<routes xmlns:xsi="http://www.w3.org/2001/XMLSchema-instance" xsi:noNamespaceSchemaLocation="http://sumo.dlr.de/xsd/routes_file.xsd">
    <!-- Vehicles, persons and containers (sorted by depart) -->
    <trip id="t_0" depart="0.00" from="164725586#1.211" to="164725585"/>
</routes>
