<?xml version="1.0" encoding="UTF-8"?>

<!-- generated on 2024-02-02 16:30:46 by Eclipse SUMO netedit Version 1.19.0
<configuration xmlns:xsi="http://www.w3.org/2001/XMLSchema-instance" xsi:noNamespaceSchemaLocation="http://sumo.dlr.de/xsd/neteditConfiguration.xsd">

    <input>
        <sumocfg-file value="/Users/iwakiryo2/Documents/01Research/01Source/BeamTrackingAlgorithm/datasource/yomiuri.sumocfg"/>
        <sumo-net-file value="/Users/iwakiryo2/Documents/01Research/01Source/BeamTrackingAlgorithm/datasource/yomiuri.net.xml"/>
    </input>

    <output>
        <output-file value="/Users/iwakiryo2/Documents/01Research/01Source/BeamTrackingAlgorithm/datasource/yomiuri.net.xml"/>
    </output>

    <processing>
        <geometry.min-radius.fix.railways value="false"/>
        <geometry.max-grade.fix value="false"/>
        <offset.disable-normalization value="true"/>
        <lefthand value="0"/>
    </processing>

    <junctions>
        <no-turnarounds value="true"/>
        <junctions.corner-detail value="5"/>
        <junctions.limit-turn-speed value="5.50"/>
        <rectangular-lane-cut value="0"/>
    </junctions>

    <pedestrian>
        <walkingareas value="0"/>
    </pedestrian>

</configuration>
-->

<net version="1.16" junctionCornerDetail="5" limitTurnSpeed="5.50" xmlns:xsi="http://www.w3.org/2001/XMLSchema-instance" xsi:noNamespaceSchemaLocation="http://sumo.dlr.de/xsd/net_file.xsd">

    <location netOffset="-365670.21,-3943689.27" convBoundary="0.00,0.00,499.35,598.81" origBoundary="139.516463,35.627880,139.521979,35.633317" projParameter="+proj=utm +zone=54 +ellps=WGS84 +datum=WGS84 +units=m +no_defs"/>

    <type id="highway.footway" priority="1" numLanes="1" speed="2.78" allow="pedestrian" oneway="1" width="2.00"/>
    <type id="highway.path" priority="1" numLanes="1" speed="5.56" allow="pedestrian bicycle" oneway="0" width="2.00"/>
    <type id="highway.service" priority="1" numLanes="1" speed="5.56" allow="pedestrian delivery bicycle" oneway="0"/>
    <type id="highway.steps" priority="1" numLanes="1" speed="1.39" allow="pedestrian" oneway="1" width="2.00"/>
    <type id="highway.tertiary" priority="10" numLanes="1" speed="22.22" disallow="tram rail_urban rail rail_electric rail_fast ship" oneway="0"/>

    <edge id=":11502788339_0" function="internal">
        <lane id=":11502788339_0_0" index="0" allow="pedestrian delivery bicycle" speed="5.56" length="4.17" shape="110.60,538.00 109.53,533.97"/>
    </edge>
    <edge id=":11502788339_1" function="internal">
        <lane id=":11502788339_1_0" index="0" allow="pedestrian delivery bicycle" speed="3.65" length="1.44" shape="110.60,538.00 111.05,536.63"/>
    </edge>
    <edge id=":11502788339_4" function="internal">
        <lane id=":11502788339_4_0" index="0" allow="pedestrian delivery bicycle" speed="3.65" length="3.23" shape="111.05,536.63 111.71,536.03 112.59,536.20 113.68,537.14"/>
    </edge>
    <edge id=":11502788339_2" function="internal">
        <lane id=":11502788339_2_0" index="0" allow="pedestrian delivery bicycle" speed="5.56" length="4.06" shape="112.64,533.21 113.68,537.14"/>
    </edge>
    <edge id=":11502788339_3" function="internal">
        <lane id=":11502788339_3_0" index="0" allow="pedestrian delivery bicycle" speed="3.65" length="1.44" shape="112.64,533.21 112.14,534.57"/>
    </edge>
    <edge id=":11502788339_5" function="internal">
        <lane id=":11502788339_5_0" index="0" allow="pedestrian delivery bicycle" speed="3.65" length="3.23" shape="112.14,534.57 111.46,535.15 110.59,534.94 109.53,533.97"/>
    </edge>
    <edge id=":11502788344_0" function="internal">
        <lane id=":11502788344_0_0" index="0" allow="pedestrian delivery bicycle" speed="3.65" length="4.67" shape="183.67,531.72 184.67,530.68 185.53,530.42 186.25,530.96 186.83,532.28"/>
    </edge>
    <edge id=":1763344934_0" function="internal">
        <lane id=":1763344934_0_0" index="0" disallow="tram rail_urban rail rail_electric rail_fast ship" speed="15.27" length="0.38" shape="339.18,510.78 338.80,510.81"/>
    </edge>
    <edge id=":1763344934_1" function="internal">
        <lane id=":1763344934_1_0" index="0" disallow="tram rail_urban rail rail_electric rail_fast ship" speed="15.27" length="0.13" shape="338.61,507.62 338.73,507.61"/>
    </edge>
    <edge id=":1763344965_0" function="internal">
        <lane id=":1763344965_0_0" index="0" disallow="tram rail_urban rail rail_electric rail_fast ship" speed="15.27" length="0.19" shape="326.39,397.53 326.21,397.57"/>
    </edge>
    <edge id=":1763344965_1" function="internal">
        <lane id=":1763344965_1_0" index="0" disallow="tram rail_urban rail rail_electric rail_fast ship" speed="15.27" length="0.30" shape="325.63,394.42 325.93,394.37"/>
    </edge>
    <edge id=":1763344987_0" function="internal">
        <lane id=":1763344987_0_0" index="0" allow="pedestrian delivery bicycle" speed="4.67" length="4.22" shape="109.48,533.77 109.08,532.94 108.36,532.46 107.32,532.33 105.96,532.56"/>
    </edge>
    <edge id=":1763344987_1" function="internal">
        <lane id=":1763344987_1_0" index="0" allow="pedestrian delivery bicycle" speed="6.62" length="9.39" shape="109.48,533.77 109.32,531.41 110.07,529.52 111.75,528.08 114.35,527.11"/>
    </edge>
    <edge id=":1763344987_2" function="internal">
        <lane id=":1763344987_2_0" index="0" allow="pedestrian delivery bicycle" speed="3.65" length="4.67" shape="109.48,533.77 109.98,532.42 110.66,531.84 111.53,532.04 112.59,533.02"/>
    </edge>
    <edge id=":1763344987_3" function="internal">
        <lane id=":1763344987_3_0" index="0" allow="pedestrian delivery bicycle" speed="4.72" length="4.25" shape="115.10,530.22 113.82,530.67 112.97,531.28 112.56,532.07 112.59,533.02"/>
    </edge>
    <edge id=":1763344987_4" function="internal">
        <lane id=":1763344987_4_0" index="0" disallow="tram rail_urban rail rail_electric rail_fast ship" speed="8.33" length="9.44" shape="115.10,530.22 105.96,532.56"/>
    </edge>
    <edge id=":1763344987_5" function="internal">
        <lane id=":1763344987_5_0" index="0" disallow="tram rail_urban rail rail_electric rail_fast ship" speed="8.33" length="9.53" shape="105.12,529.47 114.35,527.11"/>
    </edge>
    <edge id=":1763344987_6" function="internal">
        <lane id=":1763344987_6_0" index="0" allow="pedestrian delivery bicycle" speed="6.59" length="3.62" shape="105.12,529.47 107.92,529.07 108.70,529.23"/>
    </edge>
    <edge id=":1763344987_7" function="internal">
        <lane id=":1763344987_7_0" index="0" allow="pedestrian delivery bicycle" speed="6.59" length="5.84" shape="108.70,529.23 110.09,529.52 111.65,530.84 112.59,533.02"/>
    </edge>
    <edge id=":1763344996_0" function="internal">
        <lane id=":1763344996_0_0" index="0" disallow="tram rail_urban rail rail_electric rail_fast ship" speed="3.65" length="4.67" shape="29.27,516.78 28.78,515.42 28.93,514.54 29.73,514.13 31.17,514.20"/>
    </edge>
    <edge id=":1763345110_0" function="internal">
        <lane id=":1763345110_0_0" index="0" disallow="tram rail_urban rail rail_electric rail_fast ship" speed="8.33" length="9.85" shape="267.93,408.08 258.18,409.45"/>
    </edge>
    <edge id=":1763345110_1" function="internal">
        <lane id=":1763345110_1_0" index="0" allow="pedestrian delivery bicycle" speed="6.29" length="4.28" shape="267.93,408.08 264.62,408.28 263.70,408.02"/>
    </edge>
    <edge id=":1763345110_7" function="internal">
        <lane id=":1763345110_7_0" index="0" allow="pedestrian delivery bicycle" speed="6.29" length="5.76" shape="263.70,408.02 262.33,407.63 261.07,406.12 260.84,403.76"/>
    </edge>
    <edge id=":1763345110_2" function="internal">
        <lane id=":1763345110_2_0" index="0" allow="pedestrian delivery bicycle" speed="4.27" length="3.95" shape="264.02,404.07 264.18,404.66 264.80,405.00 265.88,405.09 267.42,404.93"/>
    </edge>
    <edge id=":1763345110_3" function="internal">
        <lane id=":1763345110_3_0" index="0" allow="pedestrian delivery bicycle" speed="6.91" length="8.70" shape="264.02,404.07 263.48,406.21 262.32,407.82 260.55,408.90 258.18,409.45"/>
    </edge>
    <edge id=":1763345110_4" function="internal">
        <lane id=":1763345110_4_0" index="0" allow="pedestrian delivery bicycle" speed="3.65" length="4.67" shape="264.02,404.07 263.11,405.19 262.27,405.51 261.52,405.03 260.84,403.76"/>
    </edge>
    <edge id=":1763345110_5" function="internal">
        <lane id=":1763345110_5_0" index="0" allow="pedestrian delivery bicycle" speed="5.08" length="4.28" shape="257.83,406.27 259.07,406.00 259.98,405.49 260.57,404.74 260.84,403.76"/>
    </edge>
    <edge id=":1763345110_6" function="internal">
        <lane id=":1763345110_6_0" index="0" disallow="tram rail_urban rail rail_electric rail_fast ship" speed="8.33" length="9.68" shape="257.83,406.27 267.42,404.93"/>
    </edge>
    <edge id=":1763345213_0" function="internal">
        <lane id=":1763345213_0_0" index="0" disallow="tram rail_urban rail rail_electric rail_fast ship" speed="3.65" length="4.67" shape="2.58,1.13 2.30,-0.29 2.58,-1.13 3.43,-1.41 4.84,-1.13"/>
    </edge>
    <edge id=":5300242865_0" function="internal">
        <lane id=":5300242865_0_0" index="0" allow="pedestrian delivery bicycle" speed="3.65" length="4.67" shape="340.04,210.08 339.92,208.64 340.29,207.83 341.17,207.64 342.54,208.08"/>
    </edge>
    <edge id=":5300885679_0" function="internal">
        <lane id=":5300885679_0_0" index="0" allow="pedestrian bicycle" speed="2.89" length="2.92" width="2.00" shape="403.72,455.21 403.06,454.60 402.90,454.07 403.22,453.61 404.04,453.24"/>
    </edge>
    <edge id=":5300885826_0" function="internal">
        <lane id=":5300885826_0_0" index="0" allow="pedestrian bicycle" speed="5.56" length="3.35" width="2.00" shape="429.11,455.00 428.15,455.12 427.53,455.40 426.97,455.83 426.18,456.44"/>
    </edge>
    <edge id=":5300885826_1" function="internal">
        <lane id=":5300885826_1_0" index="0" allow="pedestrian bicycle" speed="5.56" length="5.11" width="2.00" shape="429.11,455.00 428.29,454.51 427.42,453.33 426.66,451.97 426.14,450.96"/>
    </edge>
    <edge id=":5300885826_2" function="internal">
        <lane id=":5300885826_2_0" index="0" allow="pedestrian bicycle" speed="2.89" length="2.92" width="2.00" shape="429.11,455.00 428.34,454.53 428.06,454.05 428.29,453.54 429.01,453.00"/>
    </edge>
    <edge id=":5300885826_3" function="internal">
        <lane id=":5300885826_3_0" index="0" allow="pedestrian bicycle" speed="4.25" length="2.47" width="2.00" shape="428.23,450.66 429.01,453.00"/>
    </edge>
    <edge id=":5300885826_4" function="internal">
        <lane id=":5300885826_4_0" index="0" allow="pedestrian bicycle" speed="5.56" length="6.79" width="2.00" shape="428.23,450.66 428.72,452.21 428.54,453.69 427.69,455.10 426.18,456.44"/>
    </edge>
    <edge id=":5300885826_5" function="internal">
        <lane id=":5300885826_5_0" index="0" allow="pedestrian bicycle" speed="2.94" length="3.09" width="2.00" shape="428.23,450.66 427.82,451.52 427.34,451.86 426.78,451.67 426.14,450.96"/>
    </edge>
    <edge id=":5300885826_6" function="internal">
        <lane id=":5300885826_6_0" index="0" allow="pedestrian bicycle" speed="4.86" length="4.44" width="2.00" shape="425.03,454.81 425.95,453.97 426.44,453.04 426.50,452.04 426.14,450.96"/>
    </edge>
    <edge id=":5300885826_7" function="internal">
        <lane id=":5300885826_7_0" index="0" allow="pedestrian bicycle" speed="5.56" length="4.48" width="2.00" shape="425.03,454.81 426.10,454.01 426.87,453.47 427.72,453.15 429.01,453.00"/>
    </edge>
    <edge id=":5300885826_8" function="internal">
        <lane id=":5300885826_8_0" index="0" allow="pedestrian bicycle" speed="2.89" length="2.92" width="2.00" shape="425.03,454.81 425.93,454.78 426.42,455.05 426.50,455.60 426.18,456.44"/>
    </edge>
    <edge id=":5300885829_0" function="internal">
        <lane id=":5300885829_0_0" index="0" allow="pedestrian bicycle" speed="5.56" length="6.87" width="2.00" shape="437.53,432.94 436.33,434.43 436.02,435.77 436.01,437.29 435.71,439.33"/>
    </edge>
    <edge id=":5300885829_1" function="internal">
        <lane id=":5300885829_1_0" index="0" allow="pedestrian bicycle" speed="5.56" length="8.07" width="2.00" shape="437.53,432.94 435.74,434.53 434.46,435.56 433.14,436.52 431.20,437.93"/>
    </edge>
    <edge id=":5300885829_2" function="internal">
        <lane id=":5300885829_2_0" index="0" allow="pedestrian bicycle" speed="2.89" length="2.92" width="2.00" shape="437.53,432.94 436.64,433.08 436.12,432.87 435.97,432.34 436.18,431.46"/>
    </edge>
    <edge id=":5300885829_3" function="internal">
        <lane id=":5300885829_3_0" index="0" allow="pedestrian bicycle" speed="5.56" length="7.87" width="2.00" shape="430.01,436.33 431.90,434.95 433.19,434.01 434.44,433.01 436.18,431.46"/>
    </edge>
    <edge id=":5300885829_4" function="internal">
        <lane id=":5300885829_4_0" index="0" allow="pedestrian bicycle" speed="5.56" length="11.51" width="2.00" shape="430.01,436.33 433.40,434.27 435.48,434.08 436.25,435.77 435.71,439.33"/>
    </edge>
    <edge id=":5300885829_5" function="internal">
        <lane id=":5300885829_5_0" index="0" allow="pedestrian bicycle" speed="2.89" length="2.92" width="2.00" shape="430.01,436.33 430.91,436.28 431.41,436.54 431.50,437.09 431.20,437.93"/>
    </edge>
    <edge id=":5300885829_6" function="internal">
        <lane id=":5300885829_6_0" index="0" allow="pedestrian bicycle" speed="3.91" length="5.02" width="2.00" shape="433.65,439.31 433.89,437.73 433.56,436.98 432.66,437.05 431.20,437.93"/>
    </edge>
    <edge id=":5300885829_7" function="internal">
        <lane id=":5300885829_7_0" index="0" allow="pedestrian bicycle" speed="5.56" length="8.51" width="2.00" shape="433.65,439.31 434.06,436.79 434.17,434.93 434.65,433.30 436.18,431.46"/>
    </edge>
    <edge id=":5300885829_8" function="internal">
        <lane id=":5300885829_8_0" index="0" allow="pedestrian bicycle" speed="2.92" length="3.01" width="2.00" shape="433.65,439.31 434.17,438.54 434.69,438.29 435.20,438.55 435.71,439.33"/>
    </edge>
    <edge id=":5300885847_0" function="internal">
        <lane id=":5300885847_0_0" index="0" allow="pedestrian delivery bicycle" speed="5.56" length="4.61" shape="363.73,532.13 362.84,533.16 362.31,533.94 361.90,534.78 361.33,536.03"/>
    </edge>
    <edge id=":5300885847_1" function="internal">
        <lane id=":5300885847_1_0" index="0" allow="pedestrian delivery bicycle" speed="3.65" length="1.44" shape="363.73,532.13 362.33,532.48"/>
    </edge>
    <edge id=":5300885847_4" function="internal">
        <lane id=":5300885847_4_0" index="0" allow="pedestrian delivery bicycle" speed="3.65" length="3.23" shape="362.33,532.48 361.47,532.23 361.15,531.39 361.37,529.97"/>
    </edge>
    <edge id=":5300885847_2" function="internal">
        <lane id=":5300885847_2_0" index="0" allow="pedestrian delivery bicycle" speed="5.56" length="5.59" shape="358.43,534.68 359.12,533.17 359.63,532.15 360.28,531.21 361.37,529.97"/>
    </edge>
    <edge id=":5300885847_3" function="internal">
        <lane id=":5300885847_3_0" index="0" allow="pedestrian delivery bicycle" speed="3.65" length="1.44" shape="358.43,534.68 359.66,533.93"/>
    </edge>
    <edge id=":5300885847_5" function="internal">
        <lane id=":5300885847_5_0" index="0" allow="pedestrian delivery bicycle" speed="3.65" length="3.23" shape="359.66,533.93 360.56,533.90 361.11,534.61 361.33,536.03"/>
    </edge>
    <edge id=":5300885849_0" function="internal">
        <lane id=":5300885849_0_0" index="0" allow="pedestrian delivery bicycle" speed="3.65" length="4.67" shape="293.38,599.08 292.39,600.13 291.53,600.39 290.81,599.86 290.22,598.54"/>
    </edge>
    <edge id=":5300885860_0" function="internal">
        <lane id=":5300885860_0_0" index="0" allow="pedestrian delivery bicycle" speed="5.56" length="4.97" shape="427.93,545.82 426.47,545.59 425.48,545.38 424.53,545.03 423.20,544.40"/>
    </edge>
    <edge id=":5300885860_1" function="internal">
        <lane id=":5300885860_1_0" index="0" allow="pedestrian delivery bicycle" speed="3.65" length="4.67" shape="427.93,545.82 426.86,544.84 426.59,543.99 427.11,543.26 428.42,542.66"/>
    </edge>
    <edge id=":5300885860_2" function="internal">
        <lane id=":5300885860_2_0" index="0" allow="pedestrian delivery bicycle" speed="5.56" length="4.00" shape="424.62,541.53 425.69,542.04 426.45,542.31 427.25,542.48 428.42,542.66"/>
    </edge>
    <edge id=":5300885860_3" function="internal">
        <lane id=":5300885860_3_0" index="0" allow="pedestrian delivery bicycle" speed="3.65" length="4.67" shape="424.62,541.53 425.34,542.78 425.34,543.68 424.63,544.22 423.20,544.40"/>
    </edge>
    <edge id=":5300885863_0" function="internal">
        <lane id=":5300885863_0_0" index="0" allow="pedestrian delivery bicycle" speed="3.65" length="4.67" shape="472.88,536.33 473.95,537.30 474.22,538.15 473.71,538.88 472.40,539.49"/>
    </edge>
    <edge id=":5323704027_0" function="internal">
        <lane id=":5323704027_0_0" index="0" allow="pedestrian bicycle" speed="4.97" length="3.21" width="2.00" shape="445.86,410.96 446.49,411.49 446.93,412.13 447.16,412.86 447.19,413.69"/>
    </edge>
    <edge id=":5323704027_1" function="internal">
        <lane id=":5323704027_1_0" index="0" allow="pedestrian bicycle" speed="3.17" length="1.07" width="2.00" shape="445.20,413.54 445.19,413.26 445.11,413.02 444.97,412.80 444.75,412.62"/>
    </edge>
    <edge id=":6915236950_0" function="internal">
        <lane id=":6915236950_0_0" index="0" allow="pedestrian delivery bicycle" speed="5.56" length="4.94" shape="265.15,399.07 264.75,400.48 264.45,401.45 264.23,402.43 264.04,403.88"/>
    </edge>
    <edge id=":6915236950_1" function="internal">
        <lane id=":6915236950_1_0" index="0" allow="pedestrian delivery bicycle" speed="3.65" length="1.44" shape="265.15,399.07 264.07,400.03"/>
    </edge>
    <edge id=":6915236950_4" function="internal">
        <lane id=":6915236950_4_0" index="0" allow="pedestrian delivery bicycle" speed="3.65" length="3.23" shape="264.07,400.03 263.20,400.21 262.53,399.62 262.06,398.26"/>
    </edge>
    <edge id=":6915236950_2" function="internal">
        <lane id=":6915236950_2_0" index="0" allow="pedestrian delivery bicycle" speed="5.56" length="5.45" shape="260.86,403.56 261.06,401.96 261.30,400.88 261.62,399.81 262.06,398.26"/>
    </edge>
    <edge id=":6915236950_3" function="internal">
        <lane id=":6915236950_3_0" index="0" allow="pedestrian delivery bicycle" speed="3.65" length="1.44" shape="260.86,403.56 261.77,402.44"/>
    </edge>
    <edge id=":6915236950_5" function="internal">
        <lane id=":6915236950_5_0" index="0" allow="pedestrian delivery bicycle" speed="3.65" length="3.23" shape="261.77,402.44 262.61,402.12 263.37,402.60 264.04,403.88"/>
    </edge>
    <edge id=":6994271185_0" function="internal">
        <lane id=":6994271185_0_0" index="0" allow="pedestrian bicycle" speed="5.56" length="6.34" width="2.00" shape="432.53,451.31 432.07,453.13 431.85,454.40 431.77,455.69 431.74,457.57"/>
    </edge>
    <edge id=":6994271185_1" function="internal">
        <lane id=":6994271185_1_0" index="0" allow="pedestrian bicycle" speed="5.56" length="5.23" width="2.00" shape="432.53,451.31 431.97,452.87 431.25,454.01 430.36,454.71 429.31,454.99"/>
    </edge>
    <edge id=":6994271185_2" function="internal">
        <lane id=":6994271185_2_0" index="0" allow="pedestrian bicycle" speed="2.89" length="2.92" width="2.00" shape="432.53,451.31 431.85,451.90 431.30,452.02 430.88,451.65 430.59,450.79"/>
    </edge>
    <edge id=":6994271185_3" function="internal">
        <lane id=":6994271185_3_0" index="0" allow="pedestrian bicycle" speed="4.25" length="2.79" width="2.00" shape="429.21,452.99 429.81,452.76 430.18,452.23 430.41,451.54 430.59,450.79"/>
    </edge>
    <edge id=":6994271185_4" function="internal">
        <lane id=":6994271185_4_0" index="0" allow="pedestrian bicycle" speed="5.13" length="5.90" width="2.00" shape="429.21,452.99 430.35,453.23 431.15,454.07 431.61,455.51 431.74,457.57"/>
    </edge>
    <edge id=":6994271185_5" function="internal">
        <lane id=":6994271185_5_0" index="0" allow="pedestrian bicycle" speed="2.89" length="2.92" width="2.00" shape="429.21,452.99 429.98,453.45 430.26,453.94 430.03,454.45 429.31,454.99"/>
    </edge>
    <edge id=":6994271185_6" function="internal">
        <lane id=":6994271185_6_0" index="0" allow="pedestrian bicycle" speed="3.77" length="2.87" width="2.00" shape="429.74,457.53 429.82,456.71 429.91,455.87 429.80,455.22 429.31,454.99"/>
    </edge>
    <edge id=":6994271185_7" function="internal">
        <lane id=":6994271185_7_0" index="0" allow="pedestrian bicycle" speed="5.56" length="6.82" width="2.00" shape="429.74,457.53 429.77,455.51 429.86,454.12 430.10,452.75 430.59,450.79"/>
    </edge>
    <edge id=":6994271185_8" function="internal">
        <lane id=":6994271185_8_0" index="0" allow="pedestrian bicycle" speed="2.89" length="2.92" width="2.00" shape="429.74,457.53 430.25,456.79 430.76,456.55 431.25,456.81 431.74,457.57"/>
    </edge>
    <edge id=":6994271197_0" function="internal">
        <lane id=":6994271197_0_0" index="0" allow="pedestrian bicycle" speed="2.89" length="2.92" width="2.00" shape="498.91,526.35 498.27,526.98 497.73,527.13 497.29,526.79 496.95,525.95"/>
    </edge>
    <edge id=":9402067340_0" function="internal">
        <lane id=":9402067340_0_0" index="0" allow="pedestrian bicycle" speed="4.81" length="4.71" width="2.00" shape="346.65,323.15 345.24,322.75 344.09,322.78 343.20,323.24 342.57,324.13"/>
    </edge>
    <edge id=":9402067340_1" function="internal">
        <lane id=":9402067340_1_0" index="0" allow="pedestrian bicycle" speed="5.56" length="9.11" width="2.00" shape="346.65,323.15 344.12,321.80 342.64,320.20 342.22,318.36 342.84,316.28"/>
    </edge>
    <edge id=":9402067340_2" function="internal">
        <lane id=":9402067340_2_0" index="0" allow="pedestrian bicycle" speed="2.89" length="2.92" width="2.00" shape="346.65,323.15 346.15,322.40 346.11,321.84 346.53,321.48 347.42,321.30"/>
    </edge>
    <edge id=":9402067340_3" function="internal">
        <lane id=":9402067340_3_0" index="0" allow="pedestrian bicycle" speed="4.73" length="4.60" width="2.00" shape="345.68,317.75 345.33,318.86 345.50,319.82 346.20,320.63 347.42,321.30"/>
    </edge>
    <edge id=":9402067340_4" function="internal">
        <lane id=":9402067340_4_0" index="0" allow="pedestrian delivery bicycle" speed="5.56" length="7.10" shape="345.68,317.75 342.57,324.13"/>
    </edge>
    <edge id=":9402067340_5" function="internal">
        <lane id=":9402067340_5_0" index="0" allow="pedestrian delivery bicycle" speed="3.65" length="4.67" shape="345.68,317.75 344.41,318.45 343.52,318.43 342.99,317.71 342.84,316.28"/>
    </edge>
    <edge id=":9402067340_6" function="internal">
        <lane id=":9402067340_6_0" index="0" allow="pedestrian delivery bicycle" speed="5.56" length="7.27" shape="339.66,322.82 342.84,316.28"/>
    </edge>
    <edge id=":9402067340_7" function="internal">
        <lane id=":9402067340_7_0" index="0" allow="pedestrian bicycle" speed="5.56" length="8.84" width="2.00" shape="339.66,322.82 340.80,321.25 342.48,320.47 344.68,320.49 347.42,321.30"/>
    </edge>
    <edge id=":9402067340_8" function="internal">
        <lane id=":9402067340_8_0" index="0" allow="pedestrian delivery bicycle" speed="3.65" length="4.67" shape="339.66,322.82 340.88,322.05 341.77,322.02 342.34,322.71 342.57,324.13"/>
    </edge>
    <edge id=":9404244415_0" function="internal">
        <lane id=":9404244415_0_0" index="0" allow="pedestrian bicycle" speed="2.89" length="2.92" width="2.00" shape="472.38,416.86 472.47,417.76 472.25,418.27 471.70,418.40 470.84,418.14"/>
    </edge>
    <edge id=":9404284328_0" function="internal">
        <lane id=":9404284328_0_0" index="0" allow="pedestrian bicycle" speed="2.89" length="2.92" width="2.00" shape="419.06,351.58 419.12,350.68 419.43,350.21 419.99,350.18 420.80,350.58"/>
    </edge>
    <edge id=":J0_0" function="internal">
        <lane id=":J0_0_0" index="0" disallow="tram rail_urban rail rail_electric rail_fast ship" speed="8.33" length="0.10" shape="320.27,508.46 320.27,508.46"/>
    </edge>

    <edge id="-1019647937" from="9404284328" to="9404244415" priority="1" type="highway.path" shape="419.93,351.08 427.95,364.95 432.72,375.01 436.10,379.79 443.11,387.18 445.89,388.91 455.12,393.70 459.35,399.05 465.55,409.12 469.09,414.46 471.61,417.50">
        <lane id="-1019647937_0" index="0" allow="pedestrian bicycle" speed="5.56" length="85.71" width="2.00" shape="420.80,350.58 428.84,364.48 433.59,374.50 436.87,379.15 443.75,386.40 446.39,388.04 455.77,392.91 460.17,398.48 466.39,408.58 469.89,413.86 472.38,416.86"/>
    </edge>
    <edge id="-1019647940" from="6994271185" to="5300885826" priority="1" type="highway.path">
        <lane id="-1019647940_0" index="0" allow="pedestrian bicycle" speed="5.56" length="0.20" width="2.00" shape="429.31,454.99 429.11,455.00"/>
    </edge>
    <edge id="-1238277001#0" from="11502788339" to="1763344987" priority="1" type="highway.service">
        <lane id="-1238277001#0_0" index="0" allow="pedestrian delivery bicycle" speed="5.56" length="0.20" shape="109.53,533.97 109.48,533.77"/>
    </edge>
    <edge id="-1238277001#1" from="11502788344" to="11502788339" priority="1" type="highway.service" shape="185.25,532.00 180.88,556.57 165.27,553.85 150.21,551.22 134.92,548.55 119.98,545.95 115.63,543.57 113.06,540.84 111.43,535.02">
        <lane id="-1238277001#1_0" index="0" allow="pedestrian delivery bicycle" speed="5.56" length="103.89" shape="186.83,532.28 182.18,558.42 165.00,555.43 149.93,552.80 134.65,550.13 119.44,547.48 114.64,544.85 111.63,541.65 110.60,538.00"/>
    </edge>
    <edge id="-164725585" from="1763344965" to="1763344934" priority="10" type="highway.tertiary" shape="326.04,395.97 331.65,395.14 337.47,394.79 343.84,394.90 350.51,395.87 355.96,397.05 361.27,399.12 366.03,401.35 370.64,404.07 375.75,407.91 380.33,412.08 383.81,416.38 387.08,420.80 389.28,424.54 391.37,428.49 393.10,432.77 394.52,437.24 395.70,445.10 396.03,450.73 395.81,456.74 395.23,462.26 393.90,468.32 392.37,472.95 390.20,477.68 387.58,481.92 384.68,486.27 381.92,489.34 378.79,492.61 375.06,496.01 370.78,499.23 366.62,501.77 361.54,504.15 356.21,506.20 350.86,507.51 338.83,509.21">
        <lane id="-164725585_0" index="0" disallow="tram rail_urban rail rail_electric rail_fast ship" speed="22.22" length="197.58" shape="325.93,394.37 331.48,393.55 337.44,393.19 343.97,393.30 350.79,394.29 356.42,395.51 361.90,397.65 366.78,399.93 371.53,402.74 376.77,406.68 381.50,410.98 385.08,415.40 388.42,419.92 390.68,423.76 392.82,427.81 394.61,432.23 396.08,436.88 397.29,444.93 397.63,450.71 397.41,456.85 396.81,462.52 395.45,468.74 393.86,473.54 391.61,478.44 388.93,482.78 385.95,487.25 383.09,490.43 379.91,493.76 376.08,497.24 371.68,500.56 367.38,503.18 362.17,505.62 356.69,507.73 351.16,509.08 339.18,510.78"/>
    </edge>
    <edge id="-164725586#0" from="1763344987" to="1763344996" priority="10" type="highway.tertiary" shape="110.16,529.77 100.13,532.48 88.80,534.24 79.39,534.56 67.82,532.96 52.01,528.25 38.97,521.45 34.04,518.31 30.22,515.49">
        <lane id="-164725586#0_0" index="0" disallow="tram rail_urban rail rail_electric rail_fast ship" speed="8.33" length="81.40" shape="105.96,532.56 100.46,534.05 88.95,535.84 79.31,536.16 67.48,534.53 51.41,529.74 38.17,522.84 33.13,519.63 29.27,516.78"/>
    </edge>
    <edge id="-164725586#1" from="1763344934" to="1763344987" priority="10" type="highway.tertiary" shape="338.83,509.21 334.73,509.46 260.83,512.51 173.33,516.08 158.00,518.18 110.16,529.77">
        <lane id="-164725586#1_0" index="0" disallow="tram rail_urban rail rail_electric rail_fast ship" speed="8.33" length="225.23" shape="338.80,510.81 334.81,511.06 260.90,514.11 173.47,517.68 158.30,519.75 115.10,530.22"/>
    </edge>
    <edge id="-164725593#0" from="6915236950" to="1763345110" priority="1" type="highway.service">
        <lane id="-164725593#0_0" index="0" allow="pedestrian delivery bicycle" speed="5.56" length="0.20" shape="264.04,403.88 264.02,404.07"/>
    </edge>
    <edge id="-164725593#1" from="9402067340" to="6915236950" priority="1" type="highway.service" shape="342.50,320.40 335.11,336.81 325.50,355.77 311.33,367.60 285.64,382.98 270.53,387.40 264.27,396.15 262.56,402.62">
        <lane id="-164725593#1_0" index="0" allow="pedestrian delivery bicycle" speed="5.56" length="113.09" shape="342.57,324.13 336.55,337.50 326.78,356.79 312.26,368.91 286.29,384.46 271.51,388.78 265.74,396.84 265.15,399.07"/>
    </edge>
    <edge id="-164725593#2" from="5300242865" to="9402067340" priority="1" type="highway.service" shape="341.29,209.08 351.27,221.60 356.65,238.82 355.14,264.32 352.28,294.97 345.02,315.54 342.50,320.40">
        <lane id="-164725593#2_0" index="0" allow="pedestrian delivery bicycle" speed="5.56" length="115.71" shape="342.54,208.08 352.71,220.84 358.26,238.62 356.74,264.44 353.85,295.32 346.49,316.18 345.68,317.75"/>
    </edge>
    <edge id="-164725597#0" from="1763345110" to="1763344965" priority="10" type="highway.tertiary" shape="262.08,407.42 269.97,406.13 277.99,404.77 293.96,401.83 326.04,395.97">
        <lane id="-164725597#0_0" index="0" disallow="tram rail_urban rail rail_electric rail_fast ship" speed="8.33" length="59.16" shape="267.42,404.93 269.71,404.55 277.71,403.19 293.67,400.26 325.63,394.42"/>
    </edge>