<net xmlns:xsi="http://www.w3.org/2001/XMLSchema-instance" version="1.16" junctionCornerDetail="5" limitTurnSpeed="5.50" xsi:noNamespaceSchemaLocation="http://sumo.dlr.de/xsd/net_file.xsd">

    <location netOffset="0.00,0.00" convBoundary="0.00,0.00,60.00,3.00" origBoundary="-10000000000.00,-10000000000.00,10000000000.00,10000000000.00" projParameter="!" />

    <edge id="E0" from="J0" to="J1" priority="-1" shape="0.00,0.00 4.02,0.77 6.04,1.11 8.06,1.43 10.09,1.71 12.12,1.97 14.15,2.20 16.19,2.40 18.23,2.57 20.28,2.71 22.33,2.83 24.39,2.91 26.45,2.97 28.51,3.00 30.58,3.00 32.65,2.97 34.73,2.91 36.81,2.83 38.90,2.71 40.99,2.57 43.08,2.40 45.18,2.20 47.29,1.97 49.40,1.71 51.51,1.43 53.62,1.11 55.75,0.77 57.87,0.40 60.00,0.00">
        <lane id="E0_0" index="0" speed="26" length="60.40" shape="0.30,-1.57 4.31,-0.80 6.30,-0.47 8.29,-0.15 10.30,0.12 12.31,0.38 14.32,0.61 16.33,0.81 18.35,0.97 20.38,1.11 22.41,1.23 24.44,1.31 26.48,1.37 28.52,1.40 30.57,1.40 32.62,1.37 34.68,1.31 36.73,1.23 38.80,1.11 40.87,0.97 42.94,0.81 45.02,0.61 47.11,0.38 49.20,0.12 51.28,-0.15 53.37,-0.47 55.49,-0.81 57.58,-1.17 59.70,-1.57" />
    </edge>

    <junction id="J0" type="dead_end" x="0.00" y="0.00" incLanes="" intLanes="" shape="0.00,-0.00 0.60,-3.14" />
    <junction id="J1" type="dead_end" x="60.00" y="0.00" incLanes="E0_0" intLanes="" shape="59.41,-3.15 60.00,-0.00" />

</net>