<routes xmlns:xsi="http://www.w3.org/2001/XMLSchema-instance" xsi:noNamespaceSchemaLocation="http://sumo.dlr.de/xsd/routes_file.xsd">
    
    <vType id="my_car" length="5.0" maxSpeed="2" accel="5" decel="5" />
    <trip id="t_0" depart="0.00" from="13884100#6.53" to="13884624#0" type="my_car" departSpeed="4.00" />
</routes>