<configuration xmlns:xsi="http://www.w3.org/2001/XMLSchema-instance" xsi:noNamespaceSchemaLocation="http://sumo.dlr.de/xsd/sumoConfiguration.xsd">

    <input>
        <net-file value="curve_r60_s12_a0.net.xml" />
        <route-files value="curve_r60_s12_a0.rou.xml" />
    </input>

    <time>
        <step-length value="0.01" />
    </time>

</configuration>