<net xmlns:xsi="http://www.w3.org/2001/XMLSchema-instance" version="1.16" junctionCornerDetail="5" limitTurnSpeed="5.50" xsi:noNamespaceSchemaLocation="http://sumo.dlr.de/xsd/net_file.xsd">

    <location netOffset="0.00,0.00" convBoundary="0.00,0.00,60.00,7.46" origBoundary="-10000000000.00,-10000000000.00,10000000000.00,10000000000.00" projParameter="!" />

    <edge id="E0" from="J0" to="J1" priority="-1" shape="0.00,0.00 3.76,1.75 5.64,2.53 7.52,3.26 9.40,3.93 11.28,4.54 13.16,5.10 15.04,5.59 16.92,6.03 18.79,6.41 20.67,6.73 22.55,6.99 24.42,7.19 26.30,7.34 28.17,7.43 30.05,7.46 31.92,7.43 33.80,7.34 35.67,7.19 37.55,6.99 39.42,6.73 41.29,6.41 43.17,6.03 45.04,5.59 46.91,5.10 48.78,4.54 50.65,3.93 52.52,3.26 54.39,2.53 56.26,1.75 58.13,0.90 60.00,0.00">
        <lane id="E0_0" index="0" speed="16" length="62.38" shape="0.68,-1.45 4.41,0.29 6.24,1.05 8.08,1.76 9.92,2.42 11.76,3.01 13.59,3.56 15.42,4.04 17.26,4.47 19.08,4.84 20.91,5.15 22.74,5.40 24.57,5.60 26.40,5.74 28.22,5.83 30.05,5.86 31.87,5.83 33.70,5.74 35.52,5.60 37.36,5.40 39.17,5.15 41.00,4.84 42.83,4.47 44.65,4.04 46.48,3.56 48.30,3.01 50.13,2.42 51.96,1.76 53.79,1.05 55.62,0.28 57.45,-0.55 59.31,-1.44" />
    </edge>

    <junction id="J0" type="dead_end" x="0.00" y="0.00" incLanes="" intLanes="" shape="0.00,-0.00 1.35,-2.90" />
    <junction id="J1" type="dead_end" x="60.00" y="0.00" incLanes="E0_0" intLanes="" shape="58.61,-2.88 60.00,-0.00" />

</net>