<net xmlns:xsi="http://www.w3.org/2001/XMLSchema-instance" version="1.16" junctionCornerDetail="5" limitTurnSpeed="5.50" xsi:noNamespaceSchemaLocation="http://sumo.dlr.de/xsd/net_file.xsd">

    <location netOffset="0.00,0.00" convBoundary="0.00,0.00,60.00,13.59" origBoundary="-10000000000.00,-10000000000.00,10000000000.00,10000000000.00" projParameter="!" />

    <edge id="E0" from="J0" to="J1" priority="-1" shape="0.00,0.00 3.08,2.65 4.62,3.86 6.16,5.01 7.70,6.08 9.24,7.08 10.78,8.01 12.32,8.87 13.86,9.66 15.40,10.37 16.94,11.02 18.48,11.59 20.02,12.09 21.56,12.52 23.10,12.88 24.63,13.16 26.17,13.38 27.71,13.52 29.25,13.59 30.79,13.59 32.33,13.52 33.87,13.38 35.40,13.16 36.94,12.88 38.48,12.52 40.02,12.09 41.56,11.59 43.09,11.02 44.63,10.37 46.17,9.66 47.71,8.87 49.24,8.01 50.78,7.08 52.32,6.08 53.85,5.01 55.39,3.86 56.93,2.65 58.46,1.36 60.00,0.00">
        <lane id="E0_0" index="0" speed="4" length="67.42" shape="1.04,-1.21 4.11,1.42 5.59,2.59 7.10,3.71 8.59,4.75 10.09,5.72 11.58,6.63 13.08,7.46 14.56,8.22 16.05,8.91 17.53,9.53 19.01,10.08 20.48,10.56 21.96,10.97 23.43,11.31 24.89,11.58 26.36,11.79 27.82,11.92 29.29,11.99 30.75,11.99 32.22,11.92 33.68,11.79 35.14,11.58 36.61,11.31 38.08,10.97 39.56,10.56 41.03,10.08 42.50,9.53 43.98,8.91 45.47,8.22 46.95,7.46 48.43,6.63 49.93,5.72 51.43,4.75 52.91,3.71 54.42,2.59 55.92,1.41 57.41,0.15 58.94,-1.20" />
    </edge>

    <junction id="J0" type="dead_end" x="0.00" y="0.00" incLanes="" intLanes="" shape="0.00,-0.00 2.09,-2.43" />
    <junction id="J1" type="dead_end" x="60.00" y="0.00" incLanes="E0_0" intLanes="" shape="57.88,-2.40 60.00,-0.00" />

</net>