<net xmlns:xsi="http://www.w3.org/2001/XMLSchema-instance" version="1.16" junctionCornerDetail="5" limitTurnSpeed="5.50" xsi:noNamespaceSchemaLocation="http://sumo.dlr.de/xsd/net_file.xsd">

    <location netOffset="-385936.14,-3950704.70" convBoundary="0.00,0.00,1945.97,5634.18" origBoundary="139.738684,35.693866,139.760601,35.744515" projParameter="+proj=utm +zone=54 +ellps=WGS84 +datum=WGS84 +units=m +no_defs" />

    <type id="highway.footway" priority="1" numLanes="1" speed="2.78" allow="pedestrian" oneway="1" width="2.00" />
    <type id="highway.pedestrian" priority="1" numLanes="1" speed="2.78" allow="pedestrian" oneway="1" width="2.00" />
    <type id="highway.primary" priority="12" numLanes="2" speed="27.78" disallow="tram rail_urban rail rail_electric rail_fast ship" oneway="0" />
    <type id="highway.raceway" priority="15" numLanes="2" speed="83.33" allow="vip" oneway="0" />
    <type id="highway.residential" priority="3" numLanes="1" speed="13.89" disallow="tram rail_urban rail rail_electric rail_fast ship" oneway="0" />
    <type id="highway.secondary" priority="11" numLanes="1" speed="27.78" disallow="tram rail_urban rail rail_electric rail_fast ship" oneway="0" />
    <type id="highway.service" priority="1" numLanes="1" speed="5.56" allow="pedestrian delivery bicycle" oneway="0" />
    <type id="highway.steps" priority="1" numLanes="1" speed="1.39" allow="pedestrian" oneway="1" width="2.00" />
    <type id="highway.tertiary" priority="10" numLanes="1" speed="22.22" disallow="tram rail_urban rail rail_electric rail_fast ship" oneway="0" />
    <type id="highway.trunk" priority="13" numLanes="2" speed="27.78" disallow="pedestrian bicycle tram rail_urban rail rail_electric rail_fast ship" oneway="0" />
    <type id="highway.unclassified" priority="4" numLanes="1" speed="13.89" disallow="tram rail_urban rail rail_electric rail_fast ship" oneway="0" />
    <type id="railway.subway" priority="18" numLanes="1" speed="27.78" allow="rail_urban" oneway="1" />

    <edge id=":10148663213_0" function="internal">
        <lane id=":10148663213_0_0" index="0" allow="pedestrian delivery bicycle" speed="5.56" length="7.59" shape="826.61,1599.65 826.36,1597.60 826.81,1595.94 827.98,1594.67 829.86,1593.80" />
    </edge>
    <edge id=":10148663213_1" function="internal">
        <lane id=":10148663213_1_0" index="0" allow="pedestrian delivery bicycle" speed="3.91" length="2.53" shape="830.78,1596.87 830.16,1597.16 829.77,1597.58 829.61,1598.13 829.70,1598.82" />
    </edge>
    <edge id=":10148671618_0" function="internal">
        <lane id=":10148671618_0_0" index="0" allow="pedestrian delivery bicycle" speed="5.56" length="5.13" shape="829.33,1612.01 825.23,1615.10" />
    </edge>
    <edge id=":10148671618_1" function="internal">
        <lane id=":10148671618_1_0" index="0" allow="pedestrian delivery bicycle" speed="3.65" length="1.44" shape="829.33,1612.01 827.89,1612.09" />
    </edge>
    <edge id=":10148671618_4" function="internal">
        <lane id=":10148671618_4_0" index="0" allow="pedestrian delivery bicycle" speed="3.65" length="3.23" shape="827.89,1612.09 827.09,1611.70 826.92,1610.82 827.40,1609.46" />
    </edge>
    <edge id=":10148671618_2" function="internal">
        <lane id=":10148671618_2_0" index="0" allow="pedestrian delivery bicycle" speed="5.56" length="5.13" shape="823.31,1612.54 827.40,1609.46" />
    </edge>
    <edge id=":10148671618_3" function="internal">
        <lane id=":10148671618_3_0" index="0" allow="pedestrian delivery bicycle" speed="3.65" length="1.44" shape="823.31,1612.54 824.75,1612.46" />
    </edge>
    <edge id=":10148671618_5" function="internal">
        <lane id=":10148671618_5_0" index="0" allow="pedestrian delivery bicycle" speed="3.65" length="3.23" shape="824.75,1612.46 825.55,1612.86 825.71,1613.74 825.23,1615.10" />
    </edge>
    <edge id=":10148671620_0" function="internal">
        <lane id=":10148671620_0_0" index="0" allow="pedestrian delivery bicycle" speed="3.65" length="4.67" shape="799.09,1634.81 797.65,1634.89 796.85,1634.49 796.69,1633.61 797.17,1632.25" />
    </edge>
    <edge id=":10148671626_0" function="internal">
        <lane id=":10148671626_0_0" index="0" allow="pedestrian delivery bicycle" speed="5.56" length="5.00" shape="853.83,1589.94 849.04,1591.38" />
    </edge>
    <edge id=":10148671626_1" function="internal">
        <lane id=":10148671626_1_0" index="0" allow="pedestrian delivery bicycle" speed="3.65" length="1.44" shape="853.83,1589.94 852.45,1589.52" />
    </edge>
    <edge id=":10148671626_4" function="internal">
        <lane id=":10148671626_4_0" index="0" allow="pedestrian delivery bicycle" speed="3.65" length="3.23" shape="852.45,1589.52 851.84,1588.87 851.99,1587.98 852.91,1586.87" />
    </edge>
    <edge id=":10148671626_2" function="internal">
        <lane id=":10148671626_2_0" index="0" allow="pedestrian delivery bicycle" speed="5.56" length="5.00" shape="848.12,1588.31 852.91,1586.87" />
    </edge>
    <edge id=":10148671626_3" function="internal">
        <lane id=":10148671626_3_0" index="0" allow="pedestrian delivery bicycle" speed="3.65" length="1.44" shape="848.12,1588.31 849.50,1588.73" />
    </edge>
    <edge id=":10148671626_5" function="internal">
        <lane id=":10148671626_5_0" index="0" allow="pedestrian delivery bicycle" speed="3.65" length="3.23" shape="849.50,1588.73 850.11,1589.38 849.96,1590.27 849.04,1591.38" />
    </edge>
    <edge id=":1306915063_0" function="internal">
        <lane id=":1306915063_0_0" index="0" allow="pedestrian delivery bicycle" speed="3.65" length="4.67" shape="818.18,1583.61 819.03,1582.45 819.85,1582.08 820.63,1582.51 821.38,1583.75" />
    </edge>
    <edge id=":1306915146_0" function="internal">
        <lane id=":1306915146_0_0" index="0" disallow="pedestrian tram rail_urban rail rail_electric rail_fast ship" speed="5.81" length="6.89" shape="819.29,1451.27 817.01,1451.25 815.32,1451.69 814.24,1452.60 813.76,1453.97" />
    </edge>
    <edge id=":1306915146_1" function="internal">
        <lane id=":1306915146_1_0" index="0" disallow="pedestrian tram rail_urban rail rail_electric rail_fast ship" speed="27.78" length="14.10" shape="819.29,1451.27 805.27,1449.89" />
    </edge>
    <edge id=":1306915146_2" function="internal">
        <lane id=":1306915146_2_0" index="0" disallow="pedestrian tram rail_urban rail rail_electric rail_fast ship" speed="7.42" length="11.60" shape="819.29,1451.27 815.65,1450.56 813.08,1449.24 811.60,1447.32 811.19,1444.78" />
    </edge>
    <edge id=":1306915146_3" function="internal">
        <lane id=":1306915146_3_0" index="0" disallow="tram rail_urban rail rail_electric rail_fast ship" speed="8.33" length="9.06" shape="814.38,1444.93 813.76,1453.97" />
    </edge>
    <edge id=":1306915146_4" function="internal">
        <lane id=":1306915146_4_0" index="0" disallow="tram rail_urban rail rail_electric rail_fast ship" speed="7.22" length="2.74" shape="814.38,1444.93 813.71,1447.43 813.61,1447.53" />
    </edge>
    <edge id=":1306915146_5" function="internal">
        <lane id=":1306915146_5_0" index="0" disallow="tram rail_urban rail rail_electric rail_fast ship" speed="3.65" length="1.44" shape="814.38,1444.93 813.53,1446.09" />
    </edge>
    <edge id=":1306915146_9" function="internal">
        <lane id=":1306915146_9_0" index="0" disallow="tram rail_urban rail rail_electric rail_fast ship" speed="7.22" length="9.09" shape="813.61,1447.53 811.97,1449.09 809.15,1449.91 805.27,1449.89" />
    </edge>
    <edge id=":1306915146_10" function="internal">
        <lane id=":1306915146_10_0" index="0" disallow="tram rail_urban rail rail_electric rail_fast ship" speed="3.65" length="3.23" shape="813.53,1446.09 812.71,1446.45 811.93,1446.01 811.19,1444.78" />
    </edge>
    <edge id=":1306915146_6" function="internal">
        <lane id=":1306915146_6_0" index="0" disallow="tram rail_urban rail rail_electric rail_fast ship" speed="5.88" length="7.24" shape="810.58,1453.61 810.38,1452.20 809.42,1451.11 807.72,1450.34 805.27,1449.89" />
    </edge>
    <edge id=":1306915146_7" function="internal">
        <lane id=":1306915146_7_0" index="0" disallow="tram rail_urban rail rail_electric rail_fast ship" speed="8.33" length="8.86" shape="810.58,1453.61 811.19,1444.78" />
    </edge>
    <edge id=":1306915146_8" function="internal">
        <lane id=":1306915146_8_0" index="0" disallow="tram rail_urban rail rail_electric rail_fast ship" speed="3.65" length="1.44" shape="810.58,1453.61 811.50,1452.51" />
    </edge>
    <edge id=":1306915146_11" function="internal">
        <lane id=":1306915146_11_0" index="0" disallow="tram rail_urban rail rail_electric rail_fast ship" speed="3.65" length="3.23" shape="811.50,1452.51 812.34,1452.20 813.09,1452.69 813.76,1453.97" />
    </edge>
    <edge id=":1436736503_0" function="internal">
        <lane id=":1436736503_0_0" index="0" disallow="pedestrian tram rail_urban rail rail_electric rail_fast ship" speed="6.81" length="9.86" shape="1351.70,1526.05 1349.26,1525.04 1347.72,1523.45 1347.07,1521.29 1347.33,1518.55" />
        <lane id=":1436736503_0_1" index="1" disallow="pedestrian tram rail_urban rail rail_electric rail_fast ship" speed="6.04" length="7.53" shape="1351.70,1526.05 1350.62,1525.38 1350.05,1524.02 1349.99,1521.99 1350.45,1519.27" />
    </edge>
    <edge id=":1436736503_2" function="internal">
        <lane id=":1436736503_2_0" index="0" disallow="tram rail_urban rail rail_electric rail_fast ship" speed="3.65" length="4.67" shape="1351.70,1526.05 1350.73,1524.98 1350.53,1524.11 1351.11,1523.43 1352.47,1522.95" />
    </edge>
    <edge id=":1436736503_3" function="internal">
        <lane id=":1436736503_3_0" index="0" disallow="pedestrian tram rail_urban rail rail_electric rail_fast ship" speed="27.78" length="9.53" shape="1339.01,1526.50 1341.09,1517.10" />
        <lane id=":1436736503_3_1" index="1" disallow="pedestrian tram rail_urban rail rail_electric rail_fast ship" speed="27.78" length="9.53" shape="1342.15,1527.16 1344.21,1517.82" />
        <lane id=":1436736503_3_2" index="2" disallow="pedestrian tram rail_urban rail rail_electric rail_fast ship" speed="27.78" length="9.53" shape="1345.28,1527.82 1347.33,1518.55" />
        <lane id=":1436736503_3_3" index="3" disallow="pedestrian tram rail_urban rail rail_electric rail_fast ship" speed="27.78" length="9.53" shape="1348.41,1528.48 1350.45,1519.27" />
    </edge>
    <edge id=":1436736503_7" function="internal">
        <lane id=":1436736503_7_0" index="0" disallow="pedestrian tram rail_urban rail rail_electric rail_fast ship" speed="5.94" length="7.57" shape="1348.41,1528.48 1349.15,1525.80 1350.08,1523.99 1351.19,1523.03 1352.47,1522.95" />
    </edge>
    <edge id=":1436736504_0" function="internal">
        <lane id=":1436736504_0_0" index="0" disallow="pedestrian tram rail_urban rail rail_electric rail_fast ship" speed="27.78" length="10.41" shape="1322.95,1604.03 1325.07,1593.88" />
        <lane id=":1436736504_0_1" index="1" disallow="pedestrian tram rail_urban rail rail_electric rail_fast ship" speed="27.78" length="10.41" shape="1326.08,1604.69 1328.20,1594.51" />
        <lane id=":1436736504_0_2" index="2" disallow="pedestrian tram rail_urban rail rail_electric rail_fast ship" speed="27.78" length="10.41" shape="1329.21,1605.36 1331.34,1595.15" />
        <lane id=":1436736504_0_3" index="3" disallow="pedestrian tram rail_urban rail rail_electric rail_fast ship" speed="27.78" length="10.41" shape="1332.34,1606.02 1334.47,1595.79" />
    </edge>
    <edge id=":1436736505_0" function="internal">
        <lane id=":1436736505_0_0" index="0" disallow="pedestrian tram rail_urban rail rail_electric rail_fast ship" speed="13.89" length="9.57" shape="1317.58,1599.44 1315.52,1608.86" />
        <lane id=":1436736505_0_1" index="1" disallow="pedestrian tram rail_urban rail rail_electric rail_fast ship" speed="13.89" length="9.57" shape="1314.45,1598.79 1312.40,1608.14" />
        <lane id=":1436736505_0_2" index="2" disallow="pedestrian tram rail_urban rail rail_electric rail_fast ship" speed="13.89" length="9.57" shape="1311.31,1598.14 1309.29,1607.42" />
    </edge>
    <edge id=":1436736506_0" function="internal">
        <lane id=":1436736506_0_0" index="0" disallow="pedestrian bicycle tram rail_urban rail rail_electric rail_fast ship" speed="8.77" length="23.03" shape="1337.90,1613.86 1330.24,1614.83 1325.19,1613.55 1322.74,1610.01 1322.91,1604.22" />
        <lane id=":1436736506_0_1" index="1" disallow="pedestrian bicycle tram rail_urban rail rail_electric rail_fast ship" speed="7.40" length="16.01" shape="1337.17,1610.74 1331.59,1611.52 1327.88,1610.80 1326.03,1608.59 1326.04,1604.89" />
        <lane id=":1436736506_0_2" index="2" disallow="pedestrian bicycle tram rail_urban rail rail_electric rail_fast ship" speed="6.57" length="12.33" shape="1337.17,1610.74 1333.08,1611.26 1330.38,1610.57 1329.08,1608.67 1329.17,1605.55" />
        <lane id=":1436736506_0_3" index="3" disallow="pedestrian bicycle tram rail_urban rail rail_electric rail_fast ship" speed="5.64" length="8.72" shape="1337.17,1610.74 1334.57,1611.00 1332.88,1610.33 1332.13,1608.74 1332.30,1606.22" />
    </edge>
    <edge id=":1478206216_0" function="internal">
        <lane id=":1478206216_0_0" index="0" disallow="pedestrian bicycle tram rail_urban rail rail_electric rail_fast ship" speed="13.89" length="0.26" shape="1517.59,1504.79 1517.47,1504.84" />
        <lane id=":1478206216_0_1" index="1" disallow="pedestrian bicycle tram rail_urban rail rail_electric rail_fast ship" speed="13.89" length="0.26" shape="1516.56,1501.76 1516.19,1501.90" />
    </edge>
    <edge id=":1784214188_0" function="internal">
        <lane id=":1784214188_0_0" index="0" disallow="tram rail_urban rail rail_electric rail_fast ship" speed="3.65" length="4.67" shape="746.72,1062.16 747.48,1060.94 748.27,1060.51 749.08,1060.89 749.92,1062.06" />
    </edge>
    <edge id=":1784214238_0" function="internal">
        <lane id=":1784214238_0_0" index="0" disallow="pedestrian tram rail_urban rail rail_electric rail_fast ship" speed="27.78" length="0.10" shape="1174.20,1444.16 1174.20,1444.16" />
    </edge>
    <edge id=":1784214243_0" function="internal">
        <lane id=":1784214243_0_0" index="0" disallow="pedestrian tram rail_urban rail rail_electric rail_fast ship" speed="5.70" length="6.92" shape="813.73,1454.17 813.91,1455.59 814.80,1456.66 816.40,1457.38 818.71,1457.74" />
    </edge>
    <edge id=":1784214243_1" function="internal">
        <lane id=":1784214243_1_0" index="0" disallow="tram rail_urban rail rail_electric rail_fast ship" speed="3.65" length="1.44" shape="813.73,1454.17 812.81,1455.27" />
    </edge>
    <edge id=":1784214243_5" function="internal">
        <lane id=":1784214243_5_0" index="0" disallow="tram rail_urban rail rail_electric rail_fast ship" speed="3.65" length="3.23" shape="812.81,1455.27 811.97,1455.58 811.22,1455.09 810.55,1453.81" />
    </edge>
    <edge id=":1784214243_2" function="internal">
        <lane id=":1784214243_2_0" index="0" disallow="pedestrian tram rail_urban rail rail_electric rail_fast ship" speed="5.98" length="7.31" shape="804.65,1456.67 807.09,1456.66 808.89,1456.18 810.05,1455.23 810.55,1453.81" />
    </edge>
    <edge id=":1784214243_3" function="internal">
        <lane id=":1784214243_3_0" index="0" disallow="pedestrian tram rail_urban rail rail_electric rail_fast ship" speed="27.78" length="14.12" shape="804.65,1456.67 818.71,1457.74" />
        <lane id=":1784214243_3_1" index="1" disallow="pedestrian tram rail_urban rail rail_electric rail_fast ship" speed="27.78" length="14.12" shape="804.38,1459.86 818.49,1460.93" />
    </edge>
    <edge id=":1784245788_0" function="internal">
        <lane id=":1784245788_0_0" index="0" disallow="pedestrian tram rail_urban rail rail_electric rail_fast ship" speed="27.78" length="8.21" shape="1128.81,1463.69 1131.21,1463.42 1132.81,1462.86 1134.40,1462.29 1136.80,1462.00" />
    </edge>
    <edge id=":1825133042_0" function="internal">
        <lane id=":1825133042_0_0" index="0" allow="rail_urban" speed="20.83" length="0.10" shape="862.86,1493.76 862.86,1493.76" />
    </edge>
    <edge id=":1825133045_0" function="internal">
        <lane id=":1825133045_0_0" index="0" allow="rail_urban" speed="20.83" length="0.10" shape="863.59,1497.87 863.59,1497.87" />
    </edge>
    <edge id=":1825133046_0" function="internal">
        <lane id=":1825133046_0_0" index="0" allow="rail_urban" speed="20.83" length="0.10" shape="1041.34,1498.35 1041.34,1498.35" />
    </edge>
    <edge id=":1825133049_0" function="internal">
        <lane id=":1825133049_0_0" index="0" allow="rail_urban" speed="20.83" length="0.30" shape="1041.05,1501.16 1041.35,1501.18" />
    </edge>
    <edge id=":1825133052_0" function="internal">
        <lane id=":1825133052_0_0" index="0" allow="rail_urban" speed="20.83" length="0.27" shape="1140.89,1501.24 1140.63,1501.24" />
    </edge>
    <edge id=":1825133056_0" function="internal">
        <lane id=":1825133056_0_0" index="0" allow="rail_urban" speed="20.83" length="0.29" shape="1140.67,1504.79 1140.95,1504.79" />
    </edge>
    <edge id=":2153714746_0" function="internal">
        <lane id=":2153714746_0_0" index="0" disallow="pedestrian bicycle tram rail_urban rail rail_electric rail_fast ship" speed="13.89" length="0.43" shape="1556.76,1492.15 1556.70,1492.16 1556.66,1492.17 1556.62,1492.18 1556.56,1492.20" />
        <lane id=":2153714746_0_1" index="1" disallow="pedestrian bicycle tram rail_urban rail rail_electric rail_fast ship" speed="13.89" length="0.43" shape="1556.28,1488.99 1556.09,1489.02 1555.96,1489.04 1555.84,1489.07 1555.65,1489.13" />
    </edge>
    <edge id=":2401136108_0" function="internal">
        <lane id=":2401136108_0_0" index="0" disallow="pedestrian bicycle tram rail_urban rail rail_electric rail_fast ship" speed="13.89" length="0.30" shape="1733.06,1493.63 1732.76,1493.63" />
        <lane id=":2401136108_0_1" index="1" disallow="pedestrian bicycle tram rail_urban rail rail_electric rail_fast ship" speed="13.89" length="0.30" shape="1733.12,1490.43 1732.83,1490.43" />
    </edge>
    <edge id=":2401136119_0" function="internal">
        <lane id=":2401136119_0_0" index="0" disallow="pedestrian tram rail_urban rail rail_electric rail_fast ship" speed="11.11" length="5.05" shape="1155.03,1611.91 1154.98,1616.96" />
    </edge>
    <edge id=":2401136119_1" function="internal">
        <lane id=":2401136119_1_0" index="0" disallow="pedestrian tram rail_urban rail rail_electric rail_fast ship" speed="11.11" length="5.07" shape="1151.78,1616.93 1151.83,1611.87" />
    </edge>
    <edge id=":2401136143_0" function="internal">
        <lane id=":2401136143_0_0" index="0" disallow="pedestrian bicycle tram rail_urban rail rail_electric rail_fast ship" speed="13.89" length="0.30" shape="1710.69,1493.16 1710.39,1493.16" />
        <lane id=":2401136143_0_1" index="1" disallow="pedestrian bicycle tram rail_urban rail rail_electric rail_fast ship" speed="13.89" length="0.30" shape="1710.75,1489.96 1710.45,1489.96" />
    </edge>
    <edge id=":261021500_0" function="internal">
        <lane id=":261021500_0_0" index="0" allow="pedestrian delivery bicycle" speed="3.65" length="4.67" shape="961.38,1641.91 961.18,1643.33 960.63,1644.04 959.74,1644.03 958.50,1643.29" />
    </edge>
    <edge id=":261021508_0" function="internal">
        <lane id=":261021508_0_0" index="0" disallow="pedestrian bicycle tram rail_urban rail rail_electric rail_fast ship" speed="13.89" length="0.29" shape="1643.53,1491.87 1643.21,1491.86" />
        <lane id=":261021508_0_1" index="1" disallow="pedestrian bicycle tram rail_urban rail rail_electric rail_fast ship" speed="13.89" length="0.29" shape="1643.59,1488.67 1643.31,1488.67" />
    </edge>
    <edge id=":3762022191_0" function="internal">
        <lane id=":3762022191_0_0" index="0" disallow="tram rail_urban rail rail_electric rail_fast ship" speed="13.89" length="5.62" shape="1325.25,1510.26 1319.63,1510.14" />
    </edge>
    <edge id=":3762022191_1" function="internal">
        <lane id=":3762022191_1_0" index="0" disallow="tram rail_urban rail rail_electric rail_fast ship" speed="13.89" length="5.81" shape="1319.61,1506.94 1325.41,1507.06" />
    </edge>
    <edge id=":3762105822_0" function="internal">
        <lane id=":3762105822_0_0" index="0" allow="pedestrian delivery bicycle" speed="3.65" length="4.67" shape="1041.23,1279.98 1042.38,1279.11 1043.27,1279.00 1043.89,1279.64 1044.25,1281.04" />
    </edge>
    <edge id=":3762105823_0" function="internal">
        <lane id=":3762105823_0_0" index="0" disallow="pedestrian tram rail_urban rail rail_electric rail_fast ship" speed="27.78" length="10.55" shape="1086.77,1452.32 1076.22,1452.55" />
    </edge>
    <edge id=":3762105823_1" function="internal">
        <lane id=":3762105823_1_0" index="0" allow="delivery bicycle" speed="8.47" length="13.33" shape="1086.77,1452.32 1083.52,1451.79 1080.93,1450.24 1079.02,1447.67 1077.78,1444.06" />
    </edge>
    <edge id=":3762105823_2" function="internal">
        <lane id=":3762105823_2_0" index="0" allow="delivery bicycle" speed="6.77" length="11.92" shape="1086.77,1452.32 1083.94,1451.76 1082.27,1450.11 1081.76,1447.36 1082.42,1443.52" />
    </edge>
    <edge id=":3762105823_3" function="internal">
        <lane id=":3762105823_3_0" index="0" allow="delivery bicycle" speed="8.83" length="13.15" shape="1085.46,1444.54 1084.07,1447.91 1082.07,1450.37 1079.45,1451.92 1076.22,1452.55" />
    </edge>
    <edge id=":3762105823_4" function="internal">
        <lane id=":3762105823_4_0" index="0" allow="pedestrian delivery bicycle" speed="5.56" length="17.54" shape="1085.46,1444.54 1083.38,1450.16 1081.41,1451.95 1079.54,1449.92 1077.78,1444.06" />
    </edge>
    <edge id=":3762105823_5" function="internal">
        <lane id=":3762105823_5_0" index="0" allow="pedestrian delivery bicycle" speed="3.65" length="4.68" shape="1085.46,1444.54 1084.32,1445.42 1083.43,1445.55 1082.80,1444.91 1082.42,1443.52" />
    </edge>
    <edge id=":3762105823_6" function="internal">
        <lane id=":3762105823_6_0" index="0" allow="pedestrian delivery bicycle" speed="3.52" length="3.46" shape="1080.91,1443.38 1081.26,1444.55 1081.62,1444.96 1082.01,1444.62 1082.42,1443.52" />
    </edge>
    <edge id=":3762105823_7" function="internal">
        <lane id=":3762105823_7_0" index="0" allow="delivery bicycle" speed="7.04" length="12.13" shape="1080.91,1443.38 1081.34,1447.27 1080.71,1450.09 1079.00,1451.85 1076.22,1452.55" />
    </edge>
    <edge id=":3762105823_8" function="internal">
        <lane id=":3762105823_8_0" index="0" allow="pedestrian delivery bicycle" speed="3.65" length="4.67" shape="1080.91,1443.38 1080.38,1444.72 1079.69,1445.28 1078.82,1445.06 1077.78,1444.06" />
    </edge>
    <edge id=":3762105825_0" function="internal">
        <lane id=":3762105825_0_0" index="0" allow="pedestrian delivery bicycle" speed="3.65" length="4.67" shape="1087.27,1431.01 1088.49,1430.23 1089.38,1430.18 1089.95,1430.87 1090.21,1432.29" />
    </edge>
    <edge id=":3762107866_0" function="internal">
        <lane id=":3762107866_0_0" index="0" disallow="pedestrian tram rail_urban rail rail_electric rail_fast ship" speed="8.30" length="19.49" shape="1404.79,1297.72 1404.82,1293.65 1402.49,1291.00 1397.80,1289.76 1390.76,1289.94" />
    </edge>
    <edge id=":3762107885_0" function="internal">
        <lane id=":3762107885_0_0" index="0" allow="pedestrian delivery bicycle" speed="5.56" length="2.46" shape="1086.17,1441.98 1085.51,1444.34" />
    </edge>
    <edge id=":3762107885_1" function="internal">
        <lane id=":3762107885_1_0" index="0" allow="pedestrian delivery bicycle" speed="3.65" length="1.44" shape="1086.17,1441.98 1085.08,1442.92" />
    </edge>
    <edge id=":3762107885_4" function="internal">
        <lane id=":3762107885_4_0" index="0" allow="pedestrian delivery bicycle" speed="3.65" length="3.23" shape="1085.08,1442.92 1084.20,1443.09 1083.53,1442.49 1083.09,1441.12" />
    </edge>
    <edge id=":3762107885_2" function="internal">
        <lane id=":3762107885_2_0" index="0" allow="pedestrian delivery bicycle" speed="5.56" length="2.30" shape="1082.47,1443.33 1083.09,1441.12" />
    </edge>
    <edge id=":3762107885_3" function="internal">
        <lane id=":3762107885_3_0" index="0" allow="pedestrian delivery bicycle" speed="3.65" length="1.44" shape="1082.47,1443.33 1083.61,1442.44" />
    </edge>
    <edge id=":3762107885_5" function="internal">
        <lane id=":3762107885_5_0" index="0" allow="pedestrian delivery bicycle" speed="3.65" length="3.23" shape="1083.61,1442.44 1084.50,1442.32 1085.13,1442.95 1085.51,1444.34" />
    </edge>
    <edge id=":3762107886_0" function="internal">
        <lane id=":3762107886_0_0" index="0" allow="pedestrian delivery bicycle" speed="5.56" length="1.31" shape="1077.74,1443.87 1077.46,1442.59" />
    </edge>
    <edge id=":3762107886_1" function="internal">
        <lane id=":3762107886_1_0" index="0" allow="pedestrian delivery bicycle" speed="3.65" length="1.44" shape="1077.74,1443.87 1078.26,1442.53" />
    </edge>
    <edge id=":3762107886_4" function="internal">
        <lane id=":3762107886_4_0" index="0" allow="pedestrian delivery bicycle" speed="3.65" length="3.23" shape="1078.26,1442.53 1078.96,1441.96 1079.83,1442.18 1080.86,1443.18" />
    </edge>
    <edge id=":3762107886_2" function="internal">
        <lane id=":3762107886_2_0" index="0" allow="pedestrian delivery bicycle" speed="5.56" length="1.31" shape="1080.58,1441.91 1080.86,1443.18" />
    </edge>
    <edge id=":3762107886_3" function="internal">
        <lane id=":3762107886_3_0" index="0" allow="pedestrian delivery bicycle" speed="3.65" length="1.44" shape="1080.58,1441.91 1080.06,1443.25" />
    </edge>
    <edge id=":3762107886_5" function="internal">
        <lane id=":3762107886_5_0" index="0" allow="pedestrian delivery bicycle" speed="3.65" length="3.23" shape="1080.06,1443.25 1079.36,1443.81 1078.50,1443.59 1077.46,1442.59" />
    </edge>
    <edge id=":3762107915_0" function="internal">
        <lane id=":3762107915_0_0" index="0" disallow="tram rail_urban rail rail_electric rail_fast ship" speed="8.33" length="5.84" shape="811.22,1444.04 811.23,1442.32 811.07,1441.15 810.80,1439.98 810.45,1438.28" />
    </edge>
    <edge id=":3762107915_1" function="internal">
        <lane id=":3762107915_1_0" index="0" disallow="tram rail_urban rail rail_electric rail_fast ship" speed="8.33" length="5.97" shape="813.60,1437.73 813.97,1439.46 814.27,1440.65 814.44,1441.85 814.45,1443.61" />
    </edge>
    <edge id=":3762107918_0" function="internal">
        <lane id=":3762107918_0_0" index="0" disallow="pedestrian tram rail_urban rail rail_electric rail_fast ship" speed="11.11" length="0.30" shape="1155.67,1483.09 1155.67,1483.40" />
    </edge>
    <edge id=":3762107918_1" function="internal">
        <lane id=":3762107918_1_0" index="0" disallow="pedestrian tram rail_urban rail rail_electric rail_fast ship" speed="11.11" length="0.21" shape="1152.47,1483.38 1152.47,1483.17" />
    </edge>
    <edge id=":3762107923_0" function="internal">
        <lane id=":3762107923_0_0" index="0" disallow="pedestrian tram rail_urban rail rail_electric rail_fast ship" speed="5.84" length="8.33" shape="1155.42,1457.11 1155.78,1459.31 1156.84,1460.69 1158.62,1461.25 1161.09,1460.98" />
    </edge>
    <edge id=":3762107923_1" function="internal">
        <lane id=":3762107923_1_0" index="0" disallow="pedestrian tram rail_urban rail rail_electric rail_fast ship" speed="16.66" length="10.29" shape="1155.42,1457.11 1155.40,1467.40" />
    </edge>
    <edge id=":3762107923_2" function="internal">
        <lane id=":3762107923_2_0" index="0" disallow="pedestrian tram rail_urban rail rail_electric rail_fast ship" speed="3.65" length="4.67" shape="1155.42,1457.11 1154.63,1458.31 1153.83,1458.71 1153.03,1458.31 1152.22,1457.11" />
    </edge>
    <edge id=":3762107923_3" function="internal">
        <lane id=":3762107923_3_0" index="0" disallow="pedestrian tram rail_urban rail rail_electric rail_fast ship" speed="6.32" length="8.37" shape="1146.58,1461.86 1149.05,1461.53 1150.82,1460.63 1151.87,1459.16 1152.22,1457.11" />
    </edge>
    <edge id=":3762107923_4" function="internal">
        <lane id=":3762107923_4_0" index="0" disallow="pedestrian tram rail_urban rail rail_electric rail_fast ship" speed="27.78" length="14.58" shape="1146.58,1461.86 1150.27,1461.85 1153.89,1461.83 1157.48,1461.60 1161.09,1460.98" />
    </edge>
    <edge id=":3762107923_5" function="internal">
        <lane id=":3762107923_5_0" index="0" disallow="pedestrian tram rail_urban rail rail_electric rail_fast ship" speed="7.29" length="11.77" shape="1146.58,1461.86 1150.45,1462.16 1153.21,1463.18 1154.86,1464.93 1155.40,1467.40" />
    </edge>
    <edge id=":3762107923_6" function="internal">
        <lane id=":3762107923_6_0" index="0" disallow="pedestrian tram rail_urban rail rail_electric rail_fast ship" speed="16.66" length="10.28" shape="1152.20,1467.38 1152.22,1457.11" />
    </edge>
    <edge id=":3762107923_7" function="internal">
        <lane id=":3762107923_7_0" index="0" disallow="pedestrian tram rail_urban rail rail_electric rail_fast ship" speed="8.03" length="1.55" shape="1152.20,1467.38 1152.62,1465.89" />
    </edge>
    <edge id=":3762107923_8" function="internal">
        <lane id=":3762107923_8_0" index="0" disallow="pedestrian tram rail_urban rail rail_electric rail_fast ship" speed="3.65" length="1.24" shape="1152.20,1467.38 1152.89,1466.36" />
    </edge>
    <edge id=":3762107923_9" function="internal">
        <lane id=":3762107923_9_0" index="0" disallow="pedestrian tram rail_urban rail rail_electric rail_fast ship" speed="8.03" length="10.14" shape="1152.62,1465.89 1152.77,1465.38 1154.44,1463.65 1157.21,1462.18 1161.09,1460.98" />