<routes xmlns:xsi="http://www.w3.org/2001/XMLSchema-instance" xsi:noNamespaceSchemaLocation="http://sumo.dlr.de/xsd/routes_file.xsd">
    
    <vType id="my_car" length="5.0" maxSpeed="12" accel="7" decel="7" />
    <trip id="t_0" depart="0.00" from="458896715#2.302" to="213722089#0" type="my_car" departSpeed="0.00" />
</routes>