<configuration xmlns:xsi="http://www.w3.org/2001/XMLSchema-instance" xsi:noNamespaceSchemaLocation="http://sumo.dlr.de/xsd/sumoConfiguration.xsd">

    <input>
        <net-file value="curve_r40_ms16_ac1_dp0.00_ds0.00.net.xml" />
        <route-files value="curve_r40_ms16_ac1_dp0.00_ds0.00.rou.xml" />
    </input>

    <time>
        <step-length value="0.01" />
    </time>

</configuration>