<routes xmlns:xsi="http://www.w3.org/2001/XMLSchema-instance" xsi:noNamespaceSchemaLocation="http://sumo.dlr.de/xsd/routes_file.xsd">
    
    <vType id="my_car" length="5.0" maxSpeed="9" accel="6" decel="6" />
    <trip id="t_0" depart="0.00" departLane="1" from="4293961#3.36" to="41873929#0" type="my_car" departSpeed="0.00" />
</routes>