<net xmlns:xsi="http://www.w3.org/2001/XMLSchema-instance" version="1.16" junctionCornerDetail="5" limitTurnSpeed="5.50" xsi:noNamespaceSchemaLocation="http://sumo.dlr.de/xsd/net_file.xsd">

    <location netOffset="-444209.57,-5409115.93" convBoundary="0.00,0.00,7037.92,4629.59" origBoundary="2.239780,48.832513,2.353465,48.874663" projParameter="+proj=utm +zone=31 +ellps=WGS84 +datum=WGS84 +units=m +no_defs" />

    <type id="highway.cycleway" priority="1" numLanes="1" speed="5.56" allow="bicycle" oneway="0" width="2.00" />
    <type id="highway.footway" priority="1" numLanes="1" speed="2.78" allow="pedestrian" oneway="1" width="2.00" />
    <type id="highway.pedestrian" priority="1" numLanes="1" speed="2.78" allow="pedestrian" oneway="1" width="2.00" />
    <type id="highway.primary" priority="12" numLanes="2" speed="27.78" disallow="tram rail_urban rail rail_electric rail_fast ship" oneway="0" />
    <type id="highway.primary_link" priority="7" numLanes="1" speed="22.22" disallow="tram rail_urban rail rail_electric rail_fast ship" oneway="0" />
    <type id="highway.residential" priority="3" numLanes="1" speed="13.89" disallow="tram rail_urban rail rail_electric rail_fast ship" oneway="0" />
    <type id="highway.secondary" priority="11" numLanes="1" speed="27.78" disallow="tram rail_urban rail rail_electric rail_fast ship" oneway="0" />
    <type id="highway.secondary_link" priority="6" numLanes="1" speed="22.22" disallow="tram rail_urban rail rail_electric rail_fast ship" oneway="0" />
    <type id="highway.service" priority="1" numLanes="1" speed="5.56" allow="pedestrian delivery bicycle" oneway="0" />
    <type id="highway.steps" priority="1" numLanes="1" speed="1.39" allow="pedestrian" oneway="1" width="2.00" />
    <type id="highway.tertiary" priority="10" numLanes="1" speed="22.22" disallow="tram rail_urban rail rail_electric rail_fast ship" oneway="0" />
    <type id="highway.unclassified" priority="4" numLanes="1" speed="13.89" disallow="tram rail_urban rail rail_electric rail_fast ship" oneway="0" />
    <type id="railway.subway" priority="18" numLanes="1" speed="27.78" allow="rail_urban" oneway="1" />

    <edge id=":1071425333_0" function="internal">
        <lane id=":1071425333_0_0" index="0" disallow="tram rail_urban rail rail_electric rail_fast ship" speed="8.33" length="0.18" shape="4629.72,3543.65 4630.02,3543.64" />
        <lane id=":1071425333_0_1" index="1" disallow="tram rail_urban rail rail_electric rail_fast ship" speed="8.33" length="0.18" shape="4629.78,3540.45 4629.90,3540.44" />
        <lane id=":1071425333_0_2" index="2" disallow="tram rail_urban rail rail_electric rail_fast ship" speed="8.33" length="0.18" shape="4629.84,3537.25 4629.78,3537.24" />
        <lane id=":1071425333_0_3" index="3" disallow="tram rail_urban rail rail_electric rail_fast ship" speed="8.33" length="0.18" shape="4629.91,3534.05 4629.67,3534.05" />
    </edge>
    <edge id=":11010073136_0" function="internal">
        <lane id=":11010073136_0_0" index="0" allow="pedestrian delivery bicycle" speed="5.56" length="5.77" shape="4710.40,3645.49 4706.50,3649.75" />
    </edge>
    <edge id=":11010073136_1" function="internal">
        <lane id=":11010073136_1_0" index="0" allow="pedestrian delivery bicycle" speed="3.65" length="1.44" shape="4710.40,3645.49 4708.99,3645.83" />
    </edge>
    <edge id=":11010073136_4" function="internal">
        <lane id=":11010073136_4_0" index="0" allow="pedestrian delivery bicycle" speed="3.65" length="3.23" shape="4708.99,3645.83 4708.13,3645.59 4707.81,3644.75 4708.04,3643.33" />
    </edge>
    <edge id=":11010073136_2" function="internal">
        <lane id=":11010073136_2_0" index="0" allow="pedestrian delivery bicycle" speed="5.56" length="5.78" shape="4704.14,3647.59 4708.04,3643.33" />
    </edge>
    <edge id=":11010073136_3" function="internal">
        <lane id=":11010073136_3_0" index="0" allow="pedestrian delivery bicycle" speed="3.65" length="1.44" shape="4704.14,3647.59 4705.54,3647.24" />
    </edge>
    <edge id=":11010073136_5" function="internal">
        <lane id=":11010073136_5_0" index="0" allow="pedestrian delivery bicycle" speed="3.65" length="3.23" shape="4705.54,3647.24 4706.40,3647.49 4706.72,3648.32 4706.50,3649.75" />
    </edge>
    <edge id=":11010103694_0" function="internal">
        <lane id=":11010103694_0_0" index="0" disallow="tram rail_urban rail rail_electric rail_fast ship" speed="8.33" length="10.95" shape="4574.89,3713.93 4566.51,3706.88" />
    </edge>
    <edge id=":11010103694_1" function="internal">
        <lane id=":11010103694_1_0" index="0" disallow="tram rail_urban rail rail_electric rail_fast ship" speed="8.33" length="10.94" shape="4568.57,3704.43 4576.94,3711.47" />
    </edge>
    <edge id=":11013650677_0" function="internal">
        <lane id=":11013650677_0_0" index="0" allow="pedestrian bicycle" speed="5.56" length="2.57" width="2.00" shape="4545.66,3466.57 4548.15,3467.25" />
    </edge>
    <edge id=":11013650678_0" function="internal">
        <lane id=":11013650678_0_0" index="0" allow="bicycle" speed="5.56" length="3.99" width="2.00" shape="4561.44,3466.09 4561.62,3462.11" />
    </edge>
    <edge id=":11122148179_0" function="internal">
        <lane id=":11122148179_0_0" index="0" allow="bicycle" speed="5.56" length="6.04" width="2.00" shape="4598.59,3476.35 4592.87,3474.42" />
    </edge>
    <edge id=":11122148179_1" function="internal">
        <lane id=":11122148179_1_0" index="0" allow="bicycle" speed="2.89" length="1.47" width="2.00" shape="4598.59,3476.35 4597.95,3475.71 4597.80,3475.16" />
    </edge>
    <edge id=":11122148179_4" function="internal">
        <lane id=":11122148179_4_0" index="0" allow="bicycle" speed="2.89" length="1.47" width="2.00" shape="4597.80,3475.16 4598.15,3474.72 4598.99,3474.37" />
    </edge>
    <edge id=":11122148179_2" function="internal">
        <lane id=":11122148179_2_0" index="0" allow="bicycle" speed="5.56" length="5.63" width="2.00" shape="4593.65,3472.58 4598.99,3474.37" />
    </edge>
    <edge id=":11122148179_3" function="internal">
        <lane id=":11122148179_3_0" index="0" allow="bicycle" speed="2.89" length="1.14" width="2.00" shape="4593.65,3472.58 4594.14,3473.33 4594.16,3473.57" />
    </edge>
    <edge id=":11122148179_5" function="internal">
        <lane id=":11122148179_5_0" index="0" allow="bicycle" speed="2.89" length="1.78" width="2.00" shape="4594.16,3473.57 4594.18,3473.89 4593.75,3474.25 4592.87,3474.42" />
    </edge>
    <edge id=":11366210194_0" function="internal">
        <lane id=":11366210194_0_0" index="0" allow="pedestrian bus delivery bicycle" speed="8.33" length="0.77" shape="4593.26,3523.78 4593.27,3524.01 4593.29,3524.16 4593.35,3524.31 4593.45,3524.51" />
    </edge>
    <edge id=":11366210195_0" function="internal">
        <lane id=":11366210195_0_0" index="0" allow="pedestrian bus delivery bicycle" speed="5.25" length="9.31" shape="4605.89,3543.16 4613.39,3548.66" />
    </edge>
    <edge id=":11366210195_1" function="internal">
        <lane id=":11366210195_1_0" index="0" disallow="tram rail_urban rail rail_electric rail_fast ship" speed="8.33" length="7.40" shape="4605.89,3543.16 4598.49,3543.01" />
        <lane id=":11366210195_1_1" index="1" disallow="tram rail_urban rail rail_electric rail_fast ship" speed="8.33" length="7.40" shape="4605.96,3539.96 4598.56,3539.81" />
        <lane id=":11366210195_1_2" index="2" disallow="tram rail_urban rail rail_electric rail_fast ship" speed="8.33" length="7.40" shape="4606.02,3536.76 4598.62,3536.61" />
        <lane id=":11366210195_1_3" index="3" disallow="tram rail_urban rail rail_electric rail_fast ship" speed="8.33" length="7.40" shape="4606.09,3533.56 4598.68,3533.41" />
    </edge>
    <edge id=":11366210195_5" function="internal">
        <lane id=":11366210195_5_0" index="0" allow="pedestrian bus delivery bicycle" speed="8.33" length="28.08" shape="4595.05,3527.47 4598.37,3532.19 4603.67,3538.51 4609.24,3544.62 4613.39,3548.66" />
    </edge>
    <edge id=":11366210195_6" function="internal">
        <lane id=":11366210195_6_0" index="0" allow="pedestrian bus delivery bicycle" speed="5.90" length="10.06" shape="4595.05,3527.47 4597.12,3531.48 4598.41,3534.33 4598.91,3536.05 4598.62,3536.61" />
        <lane id=":11366210195_6_1" index="1" allow="pedestrian bus delivery bicycle" speed="5.04" length="6.96" shape="4595.05,3527.47 4598.68,3533.41" />
    </edge>
    <edge id=":11366210196_0" function="internal">
        <lane id=":11366210196_0_0" index="0" disallow="tram rail_urban rail rail_electric rail_fast ship" speed="8.33" length="4.87" shape="4588.14,3492.57 4588.41,3487.72" />
        <lane id=":11366210196_0_1" index="1" disallow="tram rail_urban rail rail_electric rail_fast ship" speed="8.33" length="4.87" shape="4584.94,3492.40 4585.21,3487.54" />
        <lane id=":11366210196_0_2" index="2" disallow="tram rail_urban rail rail_electric rail_fast ship" speed="8.33" length="4.87" shape="4581.75,3492.22 4582.02,3487.36" />
        <lane id=":11366210196_0_3" index="3" disallow="tram rail_urban rail rail_electric rail_fast ship" speed="8.33" length="4.87" shape="4578.55,3492.04 4578.82,3487.18" />
        <lane id=":11366210196_0_4" index="4" disallow="tram rail_urban rail rail_electric rail_fast ship" speed="8.33" length="4.87" shape="4575.36,3491.87 4575.63,3487.00" />
    </edge>
    <edge id=":11443209684_0" function="internal">
        <lane id=":11443209684_0_0" index="0" allow="bicycle" speed="5.56" length="2.16" width="2.00" shape="4590.87,3473.57 4590.28,3473.30 4589.88,3473.10 4589.47,3472.96 4588.84,3472.89" />
    </edge>
    <edge id=":11443209684_1" function="internal">
        <lane id=":11443209684_1_0" index="0" allow="bicycle" speed="2.89" length="2.92" width="2.00" shape="4590.87,3473.57 4590.37,3472.82 4590.33,3472.26 4590.76,3471.90 4591.65,3471.73" />
    </edge>
    <edge id=":11443209684_2" function="internal">
        <lane id=":11443209684_2_0" index="0" allow="bicycle" speed="5.09" length="4.07" width="2.00" shape="4589.76,3468.44 4589.82,3469.56 4590.16,3470.48 4590.77,3471.20 4591.65,3471.73" />
    </edge>
    <edge id=":11443209684_3" function="internal">
        <lane id=":11443209684_3_0" index="0" allow="bicycle" speed="4.76" length="4.72" width="2.00" shape="4589.76,3468.44 4589.73,3469.56 4589.65,3471.06 4589.40,3472.36 4588.84,3472.89" />
    </edge>
    <edge id=":11443209684_4" function="internal">
        <lane id=":11443209684_4_0" index="0" allow="bicycle" speed="5.56" length="2.85" width="2.00" shape="4588.95,3470.90 4589.78,3470.98 4590.34,3471.14 4590.87,3471.38 4591.65,3471.73" />
    </edge>
    <edge id=":11443209684_5" function="internal">
        <lane id=":11443209684_5_0" index="0" allow="bicycle" speed="2.89" length="2.92" width="2.00" shape="4588.95,3470.90 4589.67,3471.44 4589.90,3471.95 4589.62,3472.43 4588.84,3472.89" />
    </edge>
    <edge id=":11443209690_0" function="internal">
        <lane id=":11443209690_0_0" index="0" allow="pedestrian bicycle" speed="5.56" length="2.48" width="2.00" shape="4561.08,3470.13 4558.61,3469.90" />
    </edge>
    <edge id=":11443209690_1" function="internal">
        <lane id=":11443209690_1_0" index="0" allow="bicycle" speed="4.81" length="4.71" width="2.00" shape="4561.08,3470.13 4560.71,3469.53 4560.88,3468.21 4561.24,3466.72 4561.46,3465.60" />
    </edge>
    <edge id=":11443209690_2" function="internal">
        <lane id=":11443209690_2_0" index="0" allow="pedestrian bicycle" speed="2.89" length="2.92" width="2.00" shape="4561.08,3470.13 4560.37,3469.57 4560.16,3469.06 4560.46,3468.58 4561.24,3468.14" />
    </edge>
    <edge id=":11443209690_3" function="internal">
        <lane id=":11443209690_3_0" index="0" allow="bicycle" speed="4.38" length="4.06" width="2.00" shape="4558.80,3467.90 4559.92,3467.85 4560.74,3467.45 4561.25,3466.70 4561.46,3465.60" />
    </edge>
    <edge id=":11443209690_4" function="internal">
        <lane id=":11443209690_4_0" index="0" allow="pedestrian bicycle" speed="5.56" length="2.45" width="2.00" shape="4558.80,3467.90 4561.24,3468.14" />
    </edge>
    <edge id=":11443209690_5" function="internal">
        <lane id=":11443209690_5_0" index="0" allow="pedestrian bicycle" speed="2.89" length="2.92" width="2.00" shape="4558.80,3467.90 4559.50,3468.47 4559.70,3469.00 4559.41,3469.47 4558.61,3469.90" />
    </edge>
    <edge id=":11443209696_0" function="internal">
        <lane id=":11443209696_0_0" index="0" allow="bicycle" speed="5.56" length="0.82" width="2.00" shape="4589.84,3467.49 4589.86,3466.67" />
    </edge>
    <edge id=":11443209697_0" function="internal">
        <lane id=":11443209697_0_0" index="0" allow="bicycle" speed="5.56" length="3.95" width="2.00" shape="4590.01,3463.34 4589.85,3467.29" />
    </edge>
    <edge id=":11443209698_0" function="internal">
        <lane id=":11443209698_0_0" index="0" allow="bicycle" speed="5.56" length="0.79" width="2.00" shape="4561.46,3465.50 4561.43,3466.29" />
    </edge>
    <edge id=":11527308825_0" function="internal">
        <lane id=":11527308825_0_0" index="0" allow="delivery bicycle" speed="5.56" length="6.20" shape="4543.54,3634.78 4543.80,3628.59" />
    </edge>
    <edge id=":11527308825_1" function="internal">
        <lane id=":11527308825_1_0" index="0" allow="delivery bicycle" speed="5.06" length="5.01" shape="4543.54,3634.78 4543.79,3633.44 4544.41,3632.50 4545.41,3631.95 4546.78,3631.81" />
    </edge>
    <edge id=":123748604_0" function="internal">
        <lane id=":123748604_0_0" index="0" disallow="tram rail_urban rail rail_electric rail_fast ship" speed="8.33" length="26.94" shape="4541.37,3531.98 4540.44,3523.51 4540.59,3516.87 4539.95,3511.32 4536.60,3506.12" />
    </edge>
    <edge id=":123748604_1" function="internal">
        <lane id=":123748604_1_0" index="0" disallow="tram rail_urban rail rail_electric rail_fast ship" speed="8.33" length="46.71" shape="4541.37,3531.98 4541.00,3519.43 4545.47,3511.36 4552.49,3503.53 4559.73,3491.71" />
        <lane id=":123748604_1_1" index="1" disallow="tram rail_urban rail rail_electric rail_fast ship" speed="8.33" length="46.71" shape="4541.37,3531.98 4541.45,3519.60 4546.92,3511.99 4554.95,3504.63 4562.67,3492.98" />
        <lane id=":123748604_1_2" index="2" disallow="tram rail_urban rail rail_electric rail_fast ship" speed="8.33" length="46.71" shape="4541.37,3531.98 4541.88,3519.74 4548.34,3512.62 4557.39,3505.75 4565.61,3494.25" />
    </edge>
    <edge id=":123748604_4" function="internal">
        <lane id=":123748604_4_0" index="0" disallow="tram rail_urban rail rail_electric rail_fast ship" speed="8.33" length="36.71" shape="4541.37,3531.98 4541.64,3523.02 4546.46,3514.42 4555.85,3506.17 4569.79,3498.29" />
        <lane id=":123748604_4_1" index="1" disallow="tram rail_urban rail rail_electric rail_fast ship" speed="8.33" length="36.71" shape="4544.50,3531.30 4544.86,3523.49 4549.43,3515.87 4558.19,3508.43 4571.16,3501.18" />
        <lane id=":123748604_4_2" index="2" disallow="tram rail_urban rail rail_electric rail_fast ship" speed="8.33" length="36.71" shape="4547.62,3530.61 4548.08,3523.96 4552.39,3517.32 4560.54,3510.69 4572.53,3504.07" />
        <lane id=":123748604_4_3" index="3" disallow="tram rail_urban rail rail_electric rail_fast ship" speed="8.33" length="36.71" shape="4550.75,3529.92 4551.30,3524.42 4555.35,3518.77 4562.88,3512.94 4573.90,3506.96" />
        <lane id=":123748604_4_4" index="4" disallow="tram rail_urban rail rail_electric rail_fast ship" speed="8.33" length="36.71" shape="4553.87,3529.23 4554.52,3524.89 4558.31,3520.22 4565.22,3515.20 4575.28,3509.85" />
        <lane id=":123748604_4_5" index="5" disallow="tram rail_urban rail rail_electric rail_fast ship" speed="8.33" length="36.71" shape="4557.00,3528.54 4557.74,3525.36 4561.27,3521.67 4567.57,3517.46 4576.65,3512.74" />
    </edge>
    <edge id=":123748604_10" function="internal">
        <lane id=":123748604_10_0" index="0" allow="bus bicycle" speed="8.33" length="18.66" shape="4529.91,3523.43 4534.60,3519.57 4536.90,3515.78 4536.82,3512.05 4534.35,3508.40" />
    </edge>
    <edge id=":123748604_11" function="internal">
        <lane id=":123748604_11_0" index="0" allow="bus bicycle" speed="8.33" length="47.23" shape="4529.91,3523.43 4540.18,3516.27 4548.12,3510.51 4556.92,3504.93 4569.79,3498.29" />
    </edge>
    <edge id=":123748604_12" function="internal">
        <lane id=":123748604_12_0" index="0" allow="bus bicycle" speed="8.33" length="42.41" shape="4529.91,3523.43 4539.07,3515.89 4543.60,3508.63 4546.53,3499.89 4550.92,3487.90" />
        <lane id=":123748604_12_1" index="1" disallow="tram rail_urban rail rail_electric rail_fast ship" speed="8.33" length="44.19" shape="4531.67,3526.10 4540.97,3518.46 4545.81,3510.91 4549.13,3501.73 4553.86,3489.17" />
        <lane id=":123748604_12_2" index="2" disallow="tram rail_urban rail rail_electric rail_fast ship" speed="8.33" length="44.65" shape="4531.67,3526.10 4541.42,3518.69 4547.24,3511.64 4551.56,3502.91 4556.80,3490.44" />
        <lane id=":123748604_12_3" index="3" disallow="tram rail_urban rail rail_electric rail_fast ship" speed="8.33" length="45.40" shape="4531.67,3526.10 4541.85,3518.94 4548.65,3512.41 4553.98,3504.13 4559.73,3491.71" />
    </edge>
    <edge id=":123748604_16" function="internal">
        <lane id=":123748604_16_0" index="0" disallow="tram rail_urban rail rail_electric rail_fast ship" speed="8.33" length="24.61" shape="4531.67,3526.10 4537.63,3521.12 4540.43,3516.12 4540.09,3511.13 4536.60,3506.12" />
    </edge>
    <edge id=":123748604_17" function="internal">
        <lane id=":123748604_17_0" index="0" disallow="tram rail_urban rail rail_electric rail_fast ship" speed="8.33" length="46.14" shape="4531.67,3526.10 4541.91,3518.96 4549.76,3513.26 4558.44,3507.75 4571.16,3501.18" />
        <lane id=":123748604_17_1" index="1" disallow="tram rail_urban rail rail_electric rail_fast ship" speed="8.33" length="46.14" shape="4533.44,3528.77 4543.65,3521.65 4551.41,3516.00 4559.96,3510.56 4572.53,3504.07" />
        <lane id=":123748604_17_2" index="2" disallow="tram rail_urban rail rail_electric rail_fast ship" speed="8.33" length="46.14" shape="4535.21,3531.44 4545.38,3524.34 4553.05,3518.74 4561.48,3513.38 4573.90,3506.96" />
        <lane id=":123748604_17_3" index="3" disallow="tram rail_urban rail rail_electric rail_fast ship" speed="8.33" length="46.14" shape="4535.21,3531.44 4545.61,3524.78 4553.79,3520.17 4562.69,3515.79 4575.28,3509.85" />
    </edge>
    <edge id=":1838021324_0" function="internal">
        <lane id=":1838021324_0_0" index="0" allow="pedestrian delivery bicycle" speed="5.56" length="3.79" shape="4717.83,3465.44 4716.72,3465.44 4715.95,3465.54 4715.22,3465.81 4714.23,3466.32" />
    </edge>
    <edge id=":1838021324_1" function="internal">
        <lane id=":1838021324_1_0" index="0" allow="pedestrian delivery bicycle" speed="5.56" length="3.75" shape="4717.83,3465.44 4714.09,3465.42" />
    </edge>
    <edge id=":1838021324_2" function="internal">
        <lane id=":1838021324_2_0" index="0" allow="pedestrian delivery bicycle" speed="3.65" length="4.67" shape="4717.83,3465.44 4716.65,3464.62 4716.26,3463.81 4716.68,3463.02 4717.89,3462.24" />
    </edge>
    <edge id=":1838021324_3" function="internal">
        <lane id=":1838021324_3_0" index="0" allow="pedestrian delivery bicycle" speed="5.56" length="3.84" shape="4714.05,3462.22 4717.89,3462.24" />
    </edge>
    <edge id=":1838021324_4" function="internal">
        <lane id=":1838021324_4_0" index="0" allow="pedestrian delivery bicycle" speed="5.07" length="9.28" shape="4714.05,3462.22 4717.03,3462.44 4718.05,3463.20 4717.12,3464.49 4714.23,3466.32" />
    </edge>
    <edge id=":1838021324_5" function="internal">
        <lane id=":1838021324_5_0" index="0" allow="pedestrian delivery bicycle" speed="3.65" length="4.67" shape="4714.05,3462.22 4715.26,3463.00 4715.67,3463.80 4715.28,3464.60 4714.09,3465.42" />
    </edge>
    <edge id=":1838021324_6" function="internal">
        <lane id=":1838021324_6_0" index="0" allow="pedestrian delivery bicycle" speed="4.01" length="5.09" shape="4712.70,3463.51 4711.43,3464.37 4711.23,3464.97 4712.12,3465.32 4714.09,3465.42" />
    </edge>
    <edge id=":1838021324_7" function="internal">
        <lane id=":1838021324_7_0" index="0" allow="pedestrian delivery bicycle" speed="5.56" length="5.45" shape="4712.70,3463.51 4714.12,3462.77 4715.17,3462.38 4716.28,3462.24 4717.89,3462.24" />
    </edge>
    <edge id=":1838021324_8" function="internal">
        <lane id=":1838021324_8_0" index="0" allow="pedestrian delivery bicycle" speed="3.65" length="4.67" shape="4712.70,3463.51 4714.14,3463.64 4714.87,3464.15 4714.90,3465.05 4714.23,3466.32" />
    </edge>
    <edge id=":1838037101_0" function="internal">
        <lane id=":1838037101_0_0" index="0" disallow="tram rail_urban rail rail_electric rail_fast ship" speed="8.33" length="0.10" shape="4541.28,3469.45 4541.42,3469.48" />
        <lane id=":1838037101_0_1" index="1" disallow="tram rail_urban rail rail_electric rail_fast ship" speed="8.33" length="0.10" shape="4540.68,3472.60 4540.75,3472.61" />
    </edge>
    <edge id=":1838037104_0" function="internal">
        <lane id=":1838037104_0_0" index="0" disallow="tram rail_urban rail rail_electric rail_fast ship" speed="8.33" length="1.90" shape="4593.85,3479.63 4595.83,3479.91" />
        <lane id=":1838037104_0_1" index="1" disallow="tram rail_urban rail rail_electric rail_fast ship" speed="8.33" length="1.90" shape="4593.33,3482.78 4595.12,3483.03" />
    </edge>
    <edge id=":1838037106_0" function="internal">
        <lane id=":1838037106_0_0" index="0" allow="bus bicycle" speed="8.33" length="4.53" shape="4520.67,3492.93 4519.60,3492.14 4518.79,3491.71 4517.91,3491.40 4516.63,3490.99" />
    </edge>
    <edge id=":1838037108_0" function="internal">
        <lane id=":1838037108_0_0" index="0" disallow="tram rail_urban rail rail_electric rail_fast ship" speed="8.33" length="4.68" shape="4591.27,3488.03 4595.53,3486.01" />
        <lane id=":1838037108_0_1" index="1" disallow="tram rail_urban rail rail_electric rail_fast ship" speed="8.33" length="4.68" shape="4592.65,3490.92 4596.90,3488.90" />
        <lane id=":1838037108_0_2" index="2" disallow="tram rail_urban rail rail_electric rail_fast ship" speed="8.33" length="4.68" shape="4594.03,3493.81 4598.26,3491.80" />
        <lane id=":1838037108_0_3" index="3" disallow="tram rail_urban rail rail_electric rail_fast ship" speed="8.33" length="4.68" shape="4595.40,3496.70 4599.63,3494.69" />
        <lane id=":1838037108_0_4" index="4" disallow="tram rail_urban rail rail_electric rail_fast ship" speed="8.33" length="4.68" shape="4596.78,3499.58 4600.99,3497.58" />
        <lane id=":1838037108_0_5" index="5" disallow="tram rail_urban rail rail_electric rail_fast ship" speed="8.33" length="4.68" shape="4598.16,3502.47 4602.36,3500.48" />
    </edge>
    <edge id=":1985355381_0" function="internal">
        <lane id=":1985355381_0_0" index="0" disallow="tram rail_urban rail rail_electric rail_fast ship" speed="8.33" length="0.10" shape="4542.13,3931.74 4542.13,3931.74" />
    </edge>
    <edge id=":1985355381_1" function="internal">
        <lane id=":1985355381_1_0" index="0" disallow="tram rail_urban rail rail_electric rail_fast ship" speed="8.33" length="0.10" shape="4538.93,3931.56 4538.93,3931.56" />
    </edge>
    <edge id=":1985355384_0" function="internal">
        <lane id=":1985355384_0_0" index="0" disallow="tram rail_urban rail rail_electric rail_fast ship" speed="8.33" length="0.10" shape="4540.66,3966.57 4540.66,3966.57" />
    </edge>
    <edge id=":1985355384_1" function="internal">
        <lane id=":1985355384_1_0" index="0" disallow="tram rail_urban rail rail_electric rail_fast ship" speed="8.33" length="0.10" shape="4537.46,3966.47 4537.46,3966.47" />
    </edge>
    <edge id=":2162802137_0" function="internal">
        <lane id=":2162802137_0_0" index="0" disallow="tram rail_urban rail rail_electric rail_fast ship" speed="8.33" length="0.30" shape="4336.93,3782.30 4337.13,3782.08" />
    </edge>
    <edge id=":2162802141_0" function="internal">
        <lane id=":2162802141_0_0" index="0" disallow="tram rail_urban rail rail_electric rail_fast ship" speed="8.33" length="0.30" shape="4323.79,3796.28 4323.99,3796.06" />
    </edge>
    <edge id=":2295302558_0" function="internal">
        <lane id=":2295302558_0_0" index="0" allow="pedestrian bus delivery bicycle" speed="6.15" length="7.97" shape="4668.53,3590.97 4670.68,3592.18 4672.57,3592.54 4674.19,3592.06 4675.55,3590.75" />
    </edge>
    <edge id=":2295302558_1" function="internal">
        <lane id=":2295302558_1_0" index="0" allow="pedestrian bus delivery bicycle" speed="8.33" length="11.28" shape="4668.53,3590.97 4677.58,3597.70" />
    </edge>
    <edge id=":2295302558_2" function="internal">
        <lane id=":2295302558_2_0" index="0" disallow="tram rail_urban rail rail_electric rail_fast ship" speed="8.33" length="5.24" shape="4672.53,3595.03 4675.55,3590.75" />
    </edge>
    <edge id=":2295302558_3" function="internal">
        <lane id=":2295302558_3_0" index="0" allow="pedestrian bus delivery bicycle" speed="5.31" length="5.86" shape="4672.53,3595.03 4673.45,3595.01 4674.97,3595.83 4676.54,3596.91 4677.58,3597.70" />
    </edge>
    <edge id=":241885969_0" function="internal">
        <lane id=":241885969_0_0" index="0" disallow="pedestrian tram rail_urban rail rail_electric rail_fast ship" speed="13.89" length="0.30" shape="4512.52,3471.52 4512.81,3471.58" />
        <lane id=":241885969_0_1" index="1" disallow="pedestrian tram rail_urban rail rail_electric rail_fast ship" speed="13.89" length="0.30" shape="4511.87,3474.66 4512.16,3474.72" />
    </edge>
    <edge id=":241886254_0" function="internal">
        <lane id=":241886254_0_0" index="0" disallow="pedestrian tram rail_urban rail rail_electric rail_fast ship" speed="13.89" length="0.26" shape="4652.21,3500.55 4652.53,3500.62" />
        <lane id=":241886254_0_1" index="1" disallow="pedestrian tram rail_urban rail rail_electric rail_fast ship" speed="13.89" length="0.26" shape="4651.56,3503.68 4651.74,3503.72" />
    </edge>
    <edge id=":25624008_0" function="internal">
        <lane id=":25624008_0_0" index="0" allow="bus bicycle" speed="3.65" length="4.67" shape="4401.47,3842.48 4400.46,3843.51 4399.60,3843.75 4398.89,3843.21 4398.33,3841.88" />
    </edge>
    <edge id=":25624010_0" function="internal">
        <lane id=":25624010_0_0" index="0" allow="bicycle" speed="4.78" length="7.62" shape="4432.52,3677.97 4432.22,3680.50 4432.70,3681.67 4433.94,3681.47 4435.96,3679.92" />
    </edge>
    <edge id=":25624010_1" function="internal">
        <lane id=":25624010_1_0" index="0" allow="bus bicycle" speed="8.33" length="27.05" shape="4432.52,3677.97 4427.45,3704.54" />
    </edge>
    <edge id=":25624010_2" function="internal">
        <lane id=":25624010_2_0" index="0" allow="bus bicycle" speed="3.65" length="1.44" shape="4432.52,3677.97 4431.49,3678.98" />
    </edge>
    <edge id=":25624010_12" function="internal">
        <lane id=":25624010_12_0" index="0" allow="bus bicycle" speed="3.65" length="3.23" shape="4431.49,3678.98 4430.62,3679.20 4429.92,3678.65 4429.39,3677.31" />
    </edge>
    <edge id=":25624010_3" function="internal">
        <lane id=":25624010_3_0" index="0" allow="bus bicycle" speed="8.33" length="21.86" shape="4418.39,3697.09 4420.30,3693.79 4421.24,3689.18 4421.94,3683.25 4423.13,3675.98" />
        <lane id=":25624010_3_1" index="1" disallow="tram rail_urban rail rail_electric rail_fast ship" speed="8.33" length="22.16" shape="4418.39,3697.09 4420.79,3693.91 4422.79,3689.56 4424.57,3683.86 4426.26,3676.64" />
    </edge>
    <edge id=":25624010_5" function="internal">
        <lane id=":25624010_5_0" index="0" allow="pedestrian delivery bicycle" speed="6.95" length="24.57" shape="4418.39,3697.09 4435.96,3679.92" />
    </edge>
    <edge id=":25624010_6" function="internal">
        <lane id=":25624010_6_0" index="0" allow="bus bicycle" speed="6.52" length="15.79" shape="4418.39,3697.09 4421.91,3695.41 4425.08,3696.68 4427.17,3700.02 4427.45,3704.54" />
    </edge>
    <edge id=":25624010_7" function="internal">
        <lane id=":25624010_7_0" index="0" allow="bus bicycle" speed="8.33" length="27.24" shape="4418.00,3702.83 4423.13,3675.98" />
        <lane id=":25624010_7_1" index="1" disallow="tram rail_urban rail rail_electric rail_fast ship" speed="8.33" length="27.24" shape="4421.15,3703.40 4426.26,3676.64" />
        <lane id=":25624010_7_2" index="2" disallow="tram rail_urban rail rail_electric rail_fast ship" speed="8.33" length="27.24" shape="4424.30,3703.97 4429.39,3677.31" />
    </edge>
    <edge id=":25624010_10" function="internal">
        <lane id=":25624010_10_0" index="0" allow="pedestrian delivery bicycle" speed="6.95" length="9.46" shape="4424.30,3703.97 4426.61,3695.14 4426.75,3694.84" />
    </edge>
    <edge id=":25624010_11" function="internal">
        <lane id=":25624010_11_0" index="0" allow="bus bicycle" speed="3.65" length="1.44" shape="4424.30,3703.97 4425.30,3702.93" />
    </edge>
    <edge id=":25624010_13" function="internal">
        <lane id=":25624010_13_0" index="0" allow="pedestrian delivery bicycle" speed="6.95" length="17.68" shape="4426.75,3694.84 4429.65,3688.29 4432.93,3683.26 4435.96,3679.92" />
    </edge>
    <edge id=":25624010_14" function="internal">
        <lane id=":25624010_14_0" index="0" allow="bus bicycle" speed="3.65" length="3.23" shape="4425.30,3702.93 4426.16,3702.68 4426.88,3703.22 4427.45,3704.54" />
    </edge>
    <edge id=":25624011_0" function="internal">
        <lane id=":25624011_0_0" index="0" allow="bus bicycle" speed="8.33" length="14.65" shape="4439.55,3644.80 4436.51,3659.13" />
    </edge>