<configuration xmlns:xsi="http://www.w3.org/2001/XMLSchema-instance" xsi:noNamespaceSchemaLocation="http://sumo.dlr.de/xsd/sumoConfiguration.xsd">

    <input>
        <net-file value="paris2_ms18_ac2_ds2.00.net.xml" />
        <route-files value="paris2_ms18_ac2_ds2.00.rou.xml" />
    </input>

    <time>
        <step-length value="0.01" />
    </time>

</configuration>