<?xml version="1.0" encoding="UTF-8"?>

<!-- generated on 2024-02-12 03:21:57 by Eclipse SUMO netedit Version 1.19.0
-->

<routes xmlns:xsi="http://www.w3.org/2001/XMLSchema-instance" xsi:noNamespaceSchemaLocation="http://sumo.dlr.de/xsd/routes_file.xsd">
    <!-- Vehicles, persons and containers (sorted by depart) -->
    <trip id="t_0" depart="0.00" from="13884100#6.53" to="13884624#0"/>
</routes>
