<?xml version="1.0" encoding="UTF-8"?>

<!-- generated on 2024-02-12 00:46:03 by Eclipse SUMO netedit Version 1.19.0
<configuration xmlns:xsi="http://www.w3.org/2001/XMLSchema-instance" xsi:noNamespaceSchemaLocation="http://sumo.dlr.de/xsd/neteditConfiguration.xsd">

    <input>
        <sumocfg-file value="/Users/iwakiryo2/Documents/01Research/01Source/BeamTrackingAlgorithm/datasource/charles.sumocfg"/>
        <sumo-net-file value="/Users/iwakiryo2/Documents/01Research/01Source/BeamTrackingAlgorithm/datasource/charles.net.xml"/>
    </input>

    <output>
        <output-file value="/Users/iwakiryo2/Documents/01Research/01Source/BeamTrackingAlgorithm/datasource/charles.net.xml"/>
    </output>

    <processing>
        <geometry.min-radius.fix.railways value="false"/>
        <geometry.max-grade.fix value="false"/>
        <offset.disable-normalization value="true"/>
        <lefthand value="0"/>
    </processing>

    <junctions>
        <no-turnarounds value="true"/>
        <junctions.corner-detail value="5"/>
        <junctions.limit-turn-speed value="5.50"/>
        <rectangular-lane-cut value="0"/>
    </junctions>

    <pedestrian>
        <walkingareas value="0"/>
    </pedestrian>

</configuration>
-->

<net version="1.16" junctionCornerDetail="5" limitTurnSpeed="5.50" xmlns:xsi="http://www.w3.org/2001/XMLSchema-instance" xsi:noNamespaceSchemaLocation="http://sumo.dlr.de/xsd/net_file.xsd">

    <location netOffset="-466036.57,-5428316.22" convBoundary="0.00,0.00,1303.01,1212.12" origBoundary="2.535545,48.999380,2.555510,49.018463" projParameter="+proj=utm +zone=31 +ellps=WGS84 +datum=WGS84 +units=m +no_defs"/>

    <type id="highway.footway" priority="1" numLanes="1" speed="2.78" allow="pedestrian" oneway="1" width="2.00"/>
    <type id="highway.living_street" priority="2" numLanes="1" speed="2.78" disallow="tram rail_urban rail rail_electric rail_fast ship" oneway="0"/>
    <type id="highway.primary" priority="12" numLanes="2" speed="27.78" disallow="tram rail_urban rail rail_electric rail_fast ship" oneway="0"/>
    <type id="highway.primary_link" priority="7" numLanes="1" speed="22.22" disallow="tram rail_urban rail rail_electric rail_fast ship" oneway="0"/>
    <type id="highway.residential" priority="3" numLanes="1" speed="13.89" disallow="tram rail_urban rail rail_electric rail_fast ship" oneway="0"/>
    <type id="highway.secondary" priority="11" numLanes="1" speed="27.78" disallow="tram rail_urban rail rail_electric rail_fast ship" oneway="0"/>
    <type id="highway.secondary_link" priority="6" numLanes="1" speed="22.22" disallow="tram rail_urban rail rail_electric rail_fast ship" oneway="0"/>
    <type id="highway.service" priority="1" numLanes="1" speed="5.56" allow="pedestrian delivery bicycle" oneway="0"/>
    <type id="highway.steps" priority="1" numLanes="1" speed="1.39" allow="pedestrian" oneway="1" width="2.00"/>
    <type id="highway.track" priority="1" numLanes="1" speed="5.56" allow="pedestrian motorcycle moped bicycle" oneway="0"/>
    <type id="highway.unclassified" priority="4" numLanes="1" speed="13.89" disallow="tram rail_urban rail rail_electric rail_fast ship" oneway="0"/>
    <type id="railway.subway" priority="18" numLanes="1" speed="27.78" allow="rail_urban" oneway="1"/>

    <edge id=":1122129595_0" function="internal">
        <lane id=":1122129595_0_0" index="0" allow="rail_urban" speed="27.78" length="0.29" shape="483.44,592.33 483.42,592.63"/>
    </edge>
    <edge id=":1122129616_0" function="internal">
        <lane id=":1122129616_0_0" index="0" allow="rail_urban" speed="27.78" length="0.10" shape="487.64,538.79 487.64,538.79"/>
    </edge>
    <edge id=":1122129626_0" function="internal">
        <lane id=":1122129626_0_0" index="0" allow="pedestrian delivery bicycle" speed="8.33" length="0.31" shape="440.47,433.13 440.17,433.10"/>
    </edge>
    <edge id=":1122129626_1" function="internal">
        <lane id=":1122129626_1_0" index="0" allow="pedestrian delivery bicycle" speed="8.33" length="0.29" shape="440.44,429.91 440.72,429.94"/>
    </edge>
    <edge id=":1122129644_0" function="internal">
        <lane id=":1122129644_0_0" index="0" allow="pedestrian delivery bicycle" speed="8.33" length="0.30" shape="557.04,442.29 556.74,442.28"/>
    </edge>
    <edge id=":1122129644_1" function="internal">
        <lane id=":1122129644_1_0" index="0" allow="pedestrian delivery bicycle" speed="8.33" length="0.18" shape="557.00,439.09 557.18,439.10"/>
    </edge>
    <edge id=":1122129694_0" function="internal">
        <lane id=":1122129694_0_0" index="0" disallow="tram rail_urban rail rail_electric rail_fast ship" speed="27.78" length="0.10" shape="457.50,589.13 457.50,589.13"/>
    </edge>
    <edge id=":1122129700_0" function="internal">
        <lane id=":1122129700_0_0" index="0" disallow="tram rail_urban rail rail_electric rail_fast ship" speed="8.33" length="12.33" shape="505.43,577.79 505.27,581.61 505.18,584.38 505.20,586.94 505.35,590.10"/>
    </edge>
    <edge id=":1122129700_1" function="internal">
        <lane id=":1122129700_1_0" index="0" allow="pedestrian delivery bicycle" speed="6.95" length="7.89" shape="502.24,577.66 502.16,580.00 502.09,581.60 501.92,583.19 501.55,585.51"/>
    </edge>
    <edge id=":1122129727_0" function="internal">
        <lane id=":1122129727_0_0" index="0" disallow="tram rail_urban rail rail_electric rail_fast ship" speed="8.33" length="0.30" shape="506.97,540.41 506.96,540.71"/>
        <lane id=":1122129727_0_1" index="1" disallow="tram rail_urban rail rail_electric rail_fast ship" speed="8.33" length="0.30" shape="503.78,540.27 503.77,540.57"/>
    </edge>
    <edge id=":1122138755_0" function="internal">
        <lane id=":1122138755_0_0" index="0" allow="rail_urban" speed="27.78" length="0.29" shape="774.80,246.97 774.52,246.95"/>
    </edge>
    <edge id=":1122138812_0" function="internal">
        <lane id=":1122138812_0_0" index="0" allow="rail_urban" speed="27.78" length="0.30" shape="1016.70,267.38 1016.40,267.34"/>
    </edge>
    <edge id=":1122138813_0" function="internal">
        <lane id=":1122138813_0_0" index="0" allow="rail_urban" speed="27.78" length="0.30" shape="997.86,265.40 997.56,265.37"/>
    </edge>
    <edge id=":1122138819_0" function="internal">
        <lane id=":1122138819_0_0" index="0" allow="rail_urban" speed="27.78" length="0.27" shape="936.74,259.30 936.46,259.28"/>
    </edge>
    <edge id=":1122219661_0" function="internal">
        <lane id=":1122219661_0_0" index="0" allow="pedestrian delivery bicycle" speed="3.65" length="4.67" shape="725.85,1206.96 725.45,1205.58 725.66,1204.71 726.48,1204.36 727.91,1204.52"/>
    </edge>
    <edge id=":1122219667_0" function="internal">
        <lane id=":1122219667_0_0" index="0" allow="pedestrian delivery bicycle" speed="8.33" length="11.07" shape="900.81,679.55 899.63,677.51 897.72,675.96 895.08,674.92 891.71,674.37"/>
    </edge>
    <edge id=":1122219667_1" function="internal">
        <lane id=":1122219667_1_0" index="0" allow="pedestrian delivery bicycle" speed="8.33" length="12.39" shape="900.81,679.55 896.03,668.12"/>
    </edge>
    <edge id=":1122219667_2" function="internal">
        <lane id=":1122219667_2_0" index="0" allow="pedestrian delivery bicycle" speed="3.65" length="4.67" shape="900.81,679.55 901.16,678.15 901.78,677.50 902.67,677.61 903.82,678.47"/>
    </edge>
    <edge id=":1122219667_3" function="internal">
        <lane id=":1122219667_3_0" index="0" allow="pedestrian delivery bicycle" speed="8.33" length="12.60" shape="898.97,666.84 903.82,678.47"/>
    </edge>
    <edge id=":1122219667_4" function="internal">
        <lane id=":1122219667_4_0" index="0" allow="pedestrian delivery bicycle" speed="6.85" length="13.93" shape="898.97,666.84 899.89,670.46 898.99,672.92 896.26,674.23 891.71,674.37"/>
    </edge>
    <edge id=":1122219667_5" function="internal">
        <lane id=":1122219667_5_0" index="0" allow="pedestrian delivery bicycle" speed="3.65" length="4.67" shape="898.97,666.84 898.71,668.26 898.14,668.95 897.25,668.90 896.03,668.12"/>
    </edge>
    <edge id=":1122219667_6" function="internal">
        <lane id=":1122219667_6_0" index="0" allow="pedestrian delivery bicycle" speed="4.73" length="6.29" shape="893.05,671.32 895.04,671.50 896.21,671.03 896.54,669.90 896.03,668.12"/>
    </edge>
    <edge id=":1122219667_7" function="internal">
        <lane id=":1122219667_7_0" index="0" allow="pedestrian delivery bicycle" speed="8.33" length="13.48" shape="893.05,671.32 897.05,672.48 900.19,674.05 902.44,676.05 903.82,678.47"/>
    </edge>
    <edge id=":1122219667_8" function="internal">
        <lane id=":1122219667_8_0" index="0" allow="pedestrian delivery bicycle" speed="3.76" length="4.86" shape="893.05,671.32 893.86,672.58 893.90,673.51 893.19,674.11 891.71,674.37"/>
    </edge>
    <edge id=":1122219680_0" function="internal">
        <lane id=":1122219680_0_0" index="0" allow="pedestrian delivery bicycle" speed="4.96" length="5.10" shape="851.82,1108.54 850.62,1107.80 849.49,1107.64 848.44,1108.08 847.47,1109.11"/>
    </edge>
    <edge id=":1122219680_1" function="internal">
        <lane id=":1122219680_1_0" index="0" allow="pedestrian delivery bicycle" speed="7.13" length="10.14" shape="851.82,1108.54 849.87,1106.44 848.94,1104.25 849.02,1101.97 850.12,1099.60"/>
    </edge>
    <edge id=":1122219680_2" function="internal">
        <lane id=":1122219680_2_0" index="0" allow="pedestrian delivery bicycle" speed="3.65" length="4.67" shape="851.82,1108.54 851.41,1107.15 851.62,1106.28 852.44,1105.92 853.87,1106.08"/>
    </edge>
    <edge id=":1122219680_3" function="internal">
        <lane id=":1122219680_3_0" index="0" allow="pedestrian delivery bicycle" speed="5.38" length="5.37" shape="852.79,1101.37 852.24,1102.59 852.24,1103.77 852.79,1104.94 853.87,1106.08"/>
    </edge>
    <edge id=":1122219680_4" function="internal">
        <lane id=":1122219680_4_0" index="0" allow="pedestrian delivery bicycle" speed="8.33" length="9.38" shape="852.79,1101.37 847.47,1109.11"/>
    </edge>
    <edge id=":1122219680_5" function="internal">
        <lane id=":1122219680_5_0" index="0" allow="pedestrian delivery bicycle" speed="3.65" length="4.67" shape="852.79,1101.37 851.46,1101.93 850.57,1101.82 850.12,1101.04 850.12,1099.60"/>
    </edge>
    <edge id=":1122219680_6" function="internal">
        <lane id=":1122219680_6_0" index="0" allow="pedestrian delivery bicycle" speed="8.33" length="9.30" shape="844.86,1107.26 850.12,1099.60"/>
    </edge>
    <edge id=":1122219680_7" function="internal">
        <lane id=":1122219680_7_0" index="0" allow="pedestrian delivery bicycle" speed="6.80" length="10.56" shape="844.86,1107.26 846.87,1105.14 849.04,1104.23 851.38,1104.54 853.87,1106.08"/>
    </edge>
    <edge id=":1122219680_8" function="internal">
        <lane id=":1122219680_8_0" index="0" allow="pedestrian delivery bicycle" speed="3.65" length="4.67" shape="844.86,1107.26 846.21,1106.74 847.09,1106.88 847.51,1107.67 847.47,1109.11"/>
    </edge>
    <edge id=":1122219692_0" function="internal">
        <lane id=":1122219692_0_0" index="0" allow="pedestrian delivery bicycle" speed="5.06" length="4.98" shape="906.60,467.15 905.25,467.27 904.25,467.79 903.60,468.72 903.32,470.05"/>
    </edge>
    <edge id=":1122219692_1" function="internal">
        <lane id=":1122219692_1_0" index="0" allow="pedestrian delivery bicycle" speed="8.33" length="9.32" shape="906.60,467.15 897.31,466.41"/>
    </edge>
    <edge id=":1122219692_2" function="internal">
        <lane id=":1122219692_2_0" index="0" allow="pedestrian delivery bicycle" speed="3.65" length="4.67" shape="906.60,467.15 905.45,466.28 905.09,465.46 905.53,464.69 906.77,463.95"/>
    </edge>
    <edge id=":1122219692_3" function="internal">
        <lane id=":1122219692_3_0" index="0" allow="pedestrian delivery bicycle" speed="8.33" length="9.15" shape="897.65,463.23 906.77,463.95"/>
    </edge>
    <edge id=":1122219692_4" function="internal">
        <lane id=":1122219692_4_0" index="0" allow="pedestrian delivery bicycle" speed="6.91" length="10.04" shape="897.65,463.23 900.29,463.89 902.12,465.25 903.13,467.30 903.32,470.05"/>
    </edge>
    <edge id=":1122219692_5" function="internal">
        <lane id=":1122219692_5_0" index="0" allow="pedestrian delivery bicycle" speed="3.65" length="4.67" shape="897.65,463.23 898.76,464.15 899.07,464.99 898.59,465.74 897.31,466.41"/>
    </edge>
    <edge id=":1122219692_6" function="internal">
        <lane id=":1122219692_6_0" index="0" allow="pedestrian delivery bicycle" speed="5.10" length="5.00" shape="900.12,469.82 900.03,468.45 899.53,467.42 898.63,466.74 897.31,466.41"/>
    </edge>
    <edge id=":1122219692_7" function="internal">
        <lane id=":1122219692_7_0" index="0" allow="pedestrian delivery bicycle" speed="6.88" length="10.08" shape="900.12,469.82 900.71,467.13 902.01,465.25 904.03,464.19 906.77,463.95"/>
    </edge>
    <edge id=":1122219692_8" function="internal">
        <lane id=":1122219692_8_0" index="0" allow="pedestrian delivery bicycle" speed="3.65" length="4.67" shape="900.12,469.82 901.01,468.68 901.83,468.34 902.60,468.79 903.32,470.05"/>
    </edge>
    <edge id=":1122219712_0" function="internal">
        <lane id=":1122219712_0_0" index="0" allow="pedestrian delivery bicycle" speed="8.33" length="0.10" shape="836.24,670.59 836.33,670.59"/>
    </edge>
    <edge id=":1122219712_1" function="internal">
        <lane id=":1122219712_1_0" index="0" allow="pedestrian delivery bicycle" speed="8.33" length="0.10" shape="836.37,667.39 836.46,667.39"/>
    </edge>
    <edge id=":1122219715_0" function="internal">
        <lane id=":1122219715_0_0" index="0" allow="pedestrian delivery bicycle" speed="3.65" length="4.67" shape="708.89,724.44 707.46,724.24 706.76,723.69 706.77,722.79 707.51,721.56"/>
    </edge>
    <edge id=":1122219960_0" function="internal">
        <lane id=":1122219960_0_0" index="0" allow="pedestrian delivery bicycle" speed="5.23" length="5.41" shape="628.69,424.13 627.33,424.33 626.35,424.98 625.74,426.10 625.50,427.67"/>
    </edge>
    <edge id=":1122219960_1" function="internal">
        <lane id=":1122219960_1_0" index="0" allow="pedestrian delivery bicycle" speed="8.33" length="9.67" shape="628.69,424.13 625.82,424.02 623.84,423.96 621.89,424.12 619.09,424.67"/>
    </edge>
    <edge id=":1122219960_2" function="internal">
        <lane id=":1122219960_2_0" index="0" allow="pedestrian delivery bicycle" speed="3.65" length="4.67" shape="628.69,424.13 627.50,423.31 627.12,422.50 627.54,421.71 628.75,420.93"/>
    </edge>
    <edge id=":1122219960_3" function="internal">
        <lane id=":1122219960_3_0" index="0" allow="pedestrian delivery bicycle" speed="8.33" length="10.09" shape="618.72,421.47 621.64,420.90 623.69,420.74 625.76,420.81 628.75,420.93"/>
    </edge>
    <edge id=":1122219960_4" function="internal">
        <lane id=":1122219960_4_0" index="0" allow="pedestrian delivery bicycle" speed="6.62" length="11.22" shape="618.72,421.47 621.77,421.25 623.92,422.21 625.16,424.35 625.50,427.67"/>
    </edge>
    <edge id=":1122219960_5" function="internal">
        <lane id=":1122219960_5_0" index="0" allow="pedestrian delivery bicycle" speed="3.66" length="4.70" shape="618.72,421.47 620.01,422.13 620.50,422.89 620.20,423.74 619.09,424.67"/>
    </edge>
    <edge id=":1122219960_6" function="internal">
        <lane id=":1122219960_6_0" index="0" allow="pedestrian delivery bicycle" speed="4.80" length="5.30" shape="622.31,427.58 622.14,426.02 621.55,425.01 620.53,424.56 619.09,424.67"/>
    </edge>
    <edge id=":1122219960_7" function="internal">
        <lane id=":1122219960_7_0" index="0" allow="pedestrian delivery bicycle" speed="7.00" length="10.54" shape="622.31,427.58 622.78,424.63 624.01,422.53 626.00,421.30 628.75,420.93"/>
    </edge>
    <edge id=":1122219960_8" function="internal">
        <lane id=":1122219960_8_0" index="0" allow="pedestrian delivery bicycle" speed="3.65" length="4.67" shape="622.31,427.58 623.14,426.40 623.95,426.03 624.74,426.45 625.50,427.67"/>
    </edge>
    <edge id=":1122219965_0" function="internal">
        <lane id=":1122219965_0_0" index="0" allow="pedestrian delivery bicycle" speed="8.33" length="0.31" shape="615.74,574.13 615.71,574.44"/>
    </edge>
    <edge id=":1122219965_1" function="internal">
        <lane id=":1122219965_1_0" index="0" allow="pedestrian delivery bicycle" speed="8.33" length="0.22" shape="612.52,574.11 612.55,573.88"/>
    </edge>
    <edge id=":1122220082_0" function="internal">
        <lane id=":1122220082_0_0" index="0" allow="pedestrian delivery bicycle" speed="8.33" length="0.31" shape="359.18,641.63 359.15,641.94"/>
    </edge>
    <edge id=":1122220082_1" function="internal">
        <lane id=":1122220082_1_0" index="0" allow="pedestrian delivery bicycle" speed="8.33" length="0.23" shape="355.96,641.63 355.98,641.40"/>
    </edge>
    <edge id=":1122220084_0" function="internal">
        <lane id=":1122220084_0_0" index="0" allow="pedestrian delivery bicycle" speed="8.33" length="0.31" shape="365.70,554.53 365.67,554.84"/>
    </edge>
    <edge id=":1122220084_1" function="internal">
        <lane id=":1122220084_1_0" index="0" allow="pedestrian delivery bicycle" speed="8.33" length="0.29" shape="362.48,554.56 362.51,554.27"/>
    </edge>
    <edge id=":1122220090_0" function="internal">
        <lane id=":1122220090_0_0" index="0" allow="pedestrian delivery bicycle" speed="5.04" length="5.00" shape="375.04,427.77 373.67,427.86 372.66,428.37 372.01,429.29 371.72,430.63"/>
    </edge>
    <edge id=":1122220090_1" function="internal">
        <lane id=":1122220090_1_0" index="0" allow="pedestrian delivery bicycle" speed="8.33" length="9.39" shape="375.04,427.77 365.69,427.02"/>
    </edge>
    <edge id=":1122220090_2" function="internal">
        <lane id=":1122220090_2_0" index="0" allow="pedestrian delivery bicycle" speed="3.65" length="4.67" shape="375.04,427.77 373.91,426.88 373.57,426.06 374.03,425.29 375.28,424.58"/>
    </edge>
    <edge id=":1122220090_3" function="internal">
        <lane id=":1122220090_3_0" index="0" allow="pedestrian delivery bicycle" speed="8.33" length="9.36" shape="365.96,423.83 375.28,424.58"/>
    </edge>
    <edge id=":1122220090_4" function="internal">
        <lane id=":1122220090_4_0" index="0" allow="pedestrian delivery bicycle" speed="6.88" length="10.14" shape="365.96,423.83 368.65,424.45 370.51,425.80 371.53,427.85 371.72,430.63"/>
    </edge>
    <edge id=":1122220090_5" function="internal">
        <lane id=":1122220090_5_0" index="0" allow="pedestrian delivery bicycle" speed="3.65" length="4.67" shape="365.96,423.83 367.09,424.73 367.42,425.56 366.95,426.32 365.69,427.02"/>
    </edge>
    <edge id=":1122220090_6" function="internal">
        <lane id=":1122220090_6_0" index="0" allow="pedestrian delivery bicycle" speed="5.07" length="5.02" shape="368.53,430.39 368.43,429.02 367.93,427.99 367.01,427.33 365.69,427.02"/>
    </edge>
    <edge id=":1122220090_7" function="internal">
        <lane id=":1122220090_7_0" index="0" allow="pedestrian delivery bicycle" speed="6.86" length="10.17" shape="368.53,430.39 369.12,427.67 370.45,425.80 372.50,424.77 375.28,424.58"/>
    </edge>
    <edge id=":1122220090_8" function="internal">
        <lane id=":1122220090_8_0" index="0" allow="pedestrian delivery bicycle" speed="3.65" length="4.67" shape="368.53,430.39 369.41,429.26 370.24,428.92 371.01,429.38 371.72,430.63"/>
    </edge>
    <edge id=":1123335552_0" function="internal">
        <lane id=":1123335552_0_0" index="0" allow="pedestrian delivery bicycle" speed="3.65" length="4.67" shape="8.03,592.36 7.44,593.67 6.71,594.20 5.86,593.94 4.87,592.88"/>
    </edge>
    <edge id=":1123397332_0" function="internal">
        <lane id=":1123397332_0_0" index="0" allow="pedestrian delivery bicycle" speed="3.65" length="4.67" shape="1142.75,23.32 1143.84,22.38 1144.72,22.21 1145.38,22.81 1145.83,24.18"/>
    </edge>
    <edge id=":1123397489_0" function="internal">
        <lane id=":1123397489_0_0" index="0" allow="pedestrian delivery bicycle" speed="13.89" length="0.31" shape="1067.80,304.82 1067.72,305.12"/>
    </edge>
    <edge id=":1123397489_1" function="internal">
        <lane id=":1123397489_1_0" index="0" allow="pedestrian delivery bicycle" speed="13.89" length="0.26" shape="1064.64,304.25 1064.71,304.01"/>
    </edge>
    <edge id=":1123397494_0" function="internal">
        <lane id=":1123397494_0_0" index="0" allow="pedestrian delivery bicycle" speed="13.89" length="0.26" shape="1077.59,267.56 1077.52,267.81"/>
    </edge>
    <edge id=":1123397494_1" function="internal">
        <lane id=":1123397494_1_0" index="0" allow="pedestrian delivery bicycle" speed="13.89" length="0.31" shape="1074.43,267.00 1074.51,266.70"/>
    </edge>
    <edge id=":1123397505_0" function="internal">
        <lane id=":1123397505_0_0" index="0" allow="pedestrian delivery bicycle" speed="5.03" length="5.01" shape="1045.59,395.46 1044.23,395.28 1043.14,395.58 1042.33,396.36 1041.78,397.62"/>
    </edge>
    <edge id=":1123397505_1" function="internal">
        <lane id=":1123397505_1_0" index="0" allow="pedestrian delivery bicycle" speed="6.86" length="10.18" shape="1045.59,395.46 1043.04,394.34 1041.45,392.67 1040.85,390.45 1041.21,387.69"/>
    </edge>
    <edge id=":1123397505_2" function="internal">
        <lane id=":1123397505_2_0" index="0" allow="pedestrian delivery bicycle" speed="3.65" length="4.67" shape="1045.59,395.46 1044.65,394.37 1044.48,393.49 1045.08,392.83 1046.45,392.38"/>
    </edge>
    <edge id=":1123397505_3" function="internal">
        <lane id=":1123397505_3_0" index="0" allow="pedestrian delivery bicycle" speed="5.04" length="5.01" shape="1044.29,388.55 1044.11,389.91 1044.41,391.00 1045.19,391.82 1046.45,392.38"/>
    </edge>
    <edge id=":1123397505_4" function="internal">
        <lane id=":1123397505_4_0" index="0" allow="pedestrian delivery bicycle" speed="13.89" length="9.41" shape="1044.29,388.55 1041.78,397.62"/>
    </edge>
    <edge id=":1123397505_5" function="internal">
        <lane id=":1123397505_5_0" index="0" allow="pedestrian delivery bicycle" speed="3.65" length="1.44" shape="1044.29,388.55 1043.20,389.49"/>
    </edge>
    <edge id=":1123397505_9" function="internal">
        <lane id=":1123397505_9_0" index="0" allow="pedestrian delivery bicycle" speed="3.65" length="3.23" shape="1043.20,389.49 1042.32,389.66 1041.66,389.06 1041.21,387.69"/>
    </edge>
    <edge id=":1123397505_6" function="internal">
        <lane id=":1123397505_6_0" index="0" allow="pedestrian delivery bicycle" speed="13.89" length="9.43" shape="1038.69,396.78 1041.21,387.69"/>
    </edge>
    <edge id=":1123397505_7" function="internal">
        <lane id=":1123397505_7_0" index="0" allow="pedestrian delivery bicycle" speed="6.86" length="3.29" shape="1038.69,396.78 1039.80,394.22 1040.16,393.87"/>
    </edge>
    <edge id=":1123397505_8" function="internal">
        <lane id=":1123397505_8_0" index="0" allow="pedestrian delivery bicycle" speed="3.65" length="1.44" shape="1038.69,396.78 1039.78,395.83"/>
    </edge>
    <edge id=":1123397505_10" function="internal">
        <lane id=":1123397505_10_0" index="0" allow="pedestrian delivery bicycle" speed="6.86" length="6.90" shape="1040.16,393.87 1041.47,392.63 1043.68,392.01 1046.45,392.38"/>
    </edge>
    <edge id=":1123397505_11" function="internal">
        <lane id=":1123397505_11_0" index="0" allow="pedestrian delivery bicycle" speed="3.65" length="3.23" shape="1039.78,395.83 1040.66,395.66 1041.32,396.25 1041.78,397.62"/>
    </edge>
    <edge id=":1123397512_0" function="internal">
        <lane id=":1123397512_0_0" index="0" allow="pedestrian delivery bicycle" speed="8.33" length="9.02" shape="1063.98,402.14 1055.63,398.73"/>
    </edge>
    <edge id=":1123397512_1" function="internal">
        <lane id=":1123397512_1_0" index="0" allow="pedestrian delivery bicycle" speed="7.19" length="10.00" shape="1063.98,402.14 1061.85,400.73 1060.58,398.86 1060.18,396.53 1060.64,393.75"/>
    </edge>
    <edge id=":1123397512_2" function="internal">
        <lane id=":1123397512_2_0" index="0" allow="pedestrian delivery bicycle" speed="3.65" length="4.67" shape="1063.98,402.14 1063.23,400.91 1063.20,400.02 1063.90,399.46 1065.32,399.24"/>
    </edge>
    <edge id=":1123397512_3" function="internal">
        <lane id=":1123397512_3_0" index="0" allow="pedestrian delivery bicycle" speed="5.46" length="5.37" shape="1063.70,394.66 1063.43,396.21 1063.61,397.49 1064.24,398.50 1065.32,399.24"/>
    </edge>
    <edge id=":1123397512_4" function="internal">
        <lane id=":1123397512_4_0" index="0" allow="pedestrian delivery bicycle" speed="6.81" length="10.46" shape="1063.70,394.66 1062.50,397.28 1060.75,398.84 1058.46,399.32 1055.63,398.73"/>
    </edge>
    <edge id=":1123397512_5" function="internal">
        <lane id=":1123397512_5_0" index="0" allow="pedestrian delivery bicycle" speed="3.65" length="4.67" shape="1063.70,394.66 1062.60,395.58 1061.72,395.74 1061.06,395.13 1060.64,393.75"/>
    </edge>
    <edge id=":1123397512_6" function="internal">
        <lane id=":1123397512_6_0" index="0" allow="pedestrian delivery bicycle" speed="4.98" length="5.07" shape="1056.72,395.73 1058.09,396.01 1059.20,395.78 1060.05,395.02 1060.64,393.75"/>
    </edge>
    <edge id=":1123397512_7" function="internal">
        <lane id=":1123397512_7_0" index="0" allow="pedestrian delivery bicycle" speed="8.33" length="9.29" shape="1056.72,395.73 1065.32,399.24"/>
    </edge>
    <edge id=":1123397512_8" function="internal">
        <lane id=":1123397512_8_0" index="0" allow="pedestrian delivery bicycle" speed="3.65" length="4.67" shape="1056.72,395.73 1057.58,396.89 1057.68,397.78 1057.03,398.39 1055.63,398.73"/>
    </edge>
    <edge id=":1123397589_0" function="internal">
        <lane id=":1123397589_0_0" index="0" allow="pedestrian delivery bicycle" speed="8.33" length="0.59" shape="1025.88,456.93 1025.83,457.10 1025.80,457.21 1025.76,457.32 1025.69,457.48"/>
    </edge>
    <edge id=":1123397589_1" function="internal">
        <lane id=":1123397589_1_0" index="0" allow="pedestrian delivery bicycle" speed="8.33" length="0.20" shape="1022.72,456.30 1022.74,456.24 1022.76,456.21 1022.77,456.17 1022.78,456.11"/>
    </edge>
    <edge id=":1123397592_0" function="internal">
        <lane id=":1123397592_0_0" index="0" allow="pedestrian delivery bicycle" speed="11.11" length="0.28" shape="1033.95,426.28 1033.88,426.55"/>
    </edge>
    <edge id=":1123397592_1" function="internal">
        <lane id=":1123397592_1_0" index="0" allow="pedestrian delivery bicycle" speed="11.11" length="0.31" shape="1030.79,425.74 1030.87,425.44"/>
    </edge>
    <edge id=":1123397634_0" function="internal">
        <lane id=":1123397634_0_0" index="0" allow="pedestrian delivery bicycle" speed="5.94" length="5.34" shape="1009.11,478.90 1008.35,477.65 1007.40,476.79 1006.25,476.31 1004.90,476.22"/>
    </edge>
    <edge id=":1123397634_1" function="internal">
        <lane id=":1123397634_1_0" index="0" allow="pedestrian delivery bicycle" speed="7.13" length="10.39" shape="1009.11,478.90 1008.40,476.34 1008.72,474.05 1010.08,472.02 1012.48,470.27"/>
    </edge>
    <edge id=":1123397634_2" function="internal">
        <lane id=":1123397634_2_0" index="0" allow="pedestrian delivery bicycle" speed="3.65" length="4.67" shape="1009.11,478.90 1009.34,477.48 1009.90,476.78 1010.80,476.82 1012.02,477.58"/>
    </edge>
    <edge id=":1123397634_3" function="internal">
        <lane id=":1123397634_3_0" index="0" allow="pedestrian delivery bicycle" speed="5.22" length="5.11" shape="1013.60,473.30 1012.45,474.16 1011.80,475.15 1011.66,476.29 1012.02,477.58"/>
    </edge>
    <edge id=":1123397634_4" function="internal">
        <lane id=":1123397634_4_0" index="0" allow="pedestrian delivery bicycle" speed="8.33" length="9.31" shape="1013.60,473.30 1011.20,474.65 1009.47,475.47 1007.63,475.94 1004.90,476.22"/>
    </edge>
    <edge id=":1123397634_5" function="internal">
        <lane id=":1123397634_5_0" index="0" allow="pedestrian delivery bicycle" speed="3.66" length="4.73" shape="1013.60,473.30 1012.18,472.96 1011.52,472.35 1011.62,471.45 1012.48,470.27"/>
    </edge>
    <edge id=":1123397634_6" function="internal">
        <lane id=":1123397634_6_0" index="0" allow="pedestrian delivery bicycle" speed="8.33" length="8.85" shape="1004.22,473.06 1006.81,472.79 1008.55,472.34 1010.19,471.55 1012.48,470.27"/>
    </edge>
    <edge id=":1123397634_7" function="internal">
        <lane id=":1123397634_7_0" index="0" allow="pedestrian delivery bicycle" speed="7.76" length="9.66" shape="1004.22,473.06 1006.79,473.19 1008.95,473.99 1010.69,475.45 1012.02,477.58"/>
    </edge>
    <edge id=":1123397634_8" function="internal">
        <lane id=":1123397634_8_0" index="0" allow="pedestrian delivery bicycle" speed="3.66" length="4.72" shape="1004.22,473.06 1005.57,473.59 1006.14,474.29 1005.92,475.17 1004.90,476.22"/>
    </edge>
    <edge id=":1123410253_0" function="internal">
        <lane id=":1123410253_0_0" index="0" allow="pedestrian delivery bicycle" speed="8.33" length="0.10" shape="1068.25,534.34 1068.25,534.34"/>
    </edge>
    <edge id=":1123410321_0" function="internal">
        <lane id=":1123410321_0_0" index="0" allow="pedestrian delivery bicycle" speed="8.33" length="3.78" shape="1021.58,498.57 1022.06,499.58 1022.48,500.23 1023.03,500.77 1023.91,501.45"/>
    </edge>
    <edge id=":1123410321_1" function="internal">
        <lane id=":1123410321_1_0" index="0" allow="pedestrian delivery bicycle" speed="3.65" length="4.67" shape="1021.58,498.57 1021.35,499.99 1020.79,500.69 1019.90,500.66 1018.67,499.90"/>
    </edge>
    <edge id=":11258354367_0" function="internal">