<?xml version="1.0" encoding="UTF-8"?>

<!-- generated on 2024-01-31 00:01:02 by Eclipse SUMO netconvert Version 1.19.0
<configuration xmlns:xsi="http://www.w3.org/2001/XMLSchema-instance" xsi:noNamespaceSchemaLocation="http://sumo.dlr.de/xsd/netconvertConfiguration.xsd">

    <input>
        <osm-files value="osm/gaisenmon.osm"/>
    </input>

    <projection>
        <proj.utm value="true"/>
    </projection>

</configuration>
-->

<net version="1.16" junctionCornerDetail="5" limitTurnSpeed="5.50" xmlns:xsi="http://www.w3.org/2001/XMLSchema-instance" xsi:noNamespaceSchemaLocation="http://sumo.dlr.de/xsd/net_file.xsd">

    <location netOffset="-447908.31,-5411223.95" convBoundary="0.00,0.00,5752.20,2981.74" origBoundary="2.289572,48.852252,2.368303,48.878646" projParameter="+proj=utm +zone=31 +ellps=WGS84 +datum=WGS84 +units=m +no_defs"/>

    <type id="highway.cycleway" priority="1" numLanes="1" speed="5.56" allow="bicycle" oneway="0" width="2.00"/>
    <type id="highway.footway" priority="1" numLanes="1" speed="2.78" allow="pedestrian" oneway="1" width="2.00"/>
    <type id="highway.primary" priority="12" numLanes="2" speed="27.78" disallow="tram rail_urban rail rail_electric rail_fast ship" oneway="0"/>
    <type id="highway.secondary" priority="11" numLanes="1" speed="27.78" disallow="tram rail_urban rail rail_electric rail_fast ship" oneway="0"/>
    <type id="highway.service" priority="1" numLanes="1" speed="5.56" allow="pedestrian delivery bicycle" oneway="0"/>
    <type id="highway.steps" priority="1" numLanes="1" speed="1.39" allow="pedestrian" oneway="1" width="2.00"/>
    <type id="highway.tertiary" priority="10" numLanes="1" speed="22.22" disallow="tram rail_urban rail rail_electric rail_fast ship" oneway="0"/>
    <type id="highway.unclassified" priority="4" numLanes="1" speed="13.89" disallow="tram rail_urban rail rail_electric rail_fast ship" oneway="0"/>
    <type id="railway.rail" priority="20" numLanes="1" speed="44.44" allow="rail" oneway="1"/>
    <type id="railway.subway" priority="18" numLanes="1" speed="27.78" allow="rail_urban" oneway="1"/>

    <edge id=":11012358021_0" function="internal">
        <lane id=":11012358021_0_0" index="0" allow="bicycle" speed="5.56" length="0.30" width="2.00" shape="266.65,2539.05 266.48,2538.81"/>
    </edge>
    <edge id=":11012358021_1" function="internal">
        <lane id=":11012358021_1_0" index="0" allow="bicycle" speed="5.56" length="0.30" width="2.00" shape="268.11,2537.66 268.28,2537.90"/>
    </edge>
    <edge id=":11012358113_0" function="internal">
        <lane id=":11012358113_0_0" index="0" allow="bus bicycle" speed="8.33" length="0.28" shape="359.14,2842.34 359.11,2842.62"/>
    </edge>
    <edge id=":11012358113_1" function="internal">
        <lane id=":11012358113_1_0" index="0" disallow="tram rail_urban rail rail_electric rail_fast ship" speed="8.33" length="0.31" shape="352.75,2841.96 352.78,2841.65"/>
        <lane id=":11012358113_1_1" index="1" disallow="tram rail_urban rail rail_electric rail_fast ship" speed="8.33" length="0.31" shape="355.93,2842.29 355.96,2842.00"/>
    </edge>
    <edge id=":11015661164_0" function="internal">
        <lane id=":11015661164_0_0" index="0" allow="pedestrian delivery bicycle" speed="5.56" length="9.52" shape="539.94,2543.35 538.91,2540.82 538.77,2538.91 539.21,2536.92 539.94,2534.18"/>
    </edge>
    <edge id=":11070666341_0" function="internal">
        <lane id=":11070666341_0_0" index="0" allow="bicycle" speed="5.56" length="0.30" width="2.00" shape="328.71,2589.49 328.44,2589.35"/>
    </edge>
    <edge id=":11070666341_1" function="internal">
        <lane id=":11070666341_1_0" index="0" allow="bicycle" speed="5.56" length="0.30" width="2.00" shape="329.31,2587.56 329.58,2587.69"/>
    </edge>
    <edge id=":11070685414_0" function="internal">
        <lane id=":11070685414_0_0" index="0" allow="bicycle" speed="5.56" length="0.10" width="2.00" shape="370.42,2602.53 370.42,2602.53"/>
    </edge>
    <edge id=":11070685414_1" function="internal">
        <lane id=":11070685414_1_0" index="0" allow="bicycle" speed="5.56" length="0.10" width="2.00" shape="370.82,2600.57 370.82,2600.57"/>
    </edge>
    <edge id=":11070685415_0" function="internal">
        <lane id=":11070685415_0_0" index="0" allow="bicycle" speed="5.56" length="0.30" width="2.00" shape="394.52,2605.41 394.22,2605.39"/>
    </edge>
    <edge id=":11070685415_1" function="internal">
        <lane id=":11070685415_1_0" index="0" allow="bicycle" speed="5.56" length="0.30" width="2.00" shape="394.37,2603.39 394.66,2603.41"/>
    </edge>
    <edge id=":11070685417_0" function="internal">
        <lane id=":11070685417_0_0" index="0" allow="bicycle" speed="5.56" length="0.30" width="2.00" shape="458.37,2593.75 458.09,2593.86"/>
    </edge>
    <edge id=":11070685417_1" function="internal">
        <lane id=":11070685417_1_0" index="0" allow="bicycle" speed="5.56" length="0.30" width="2.00" shape="457.38,2591.99 457.65,2591.89"/>
    </edge>
    <edge id=":11070685419_0" function="internal">
        <lane id=":11070685419_0_0" index="0" allow="bicycle" speed="5.56" length="0.30" width="2.00" shape="485.48,2581.52 485.21,2581.65"/>
    </edge>
    <edge id=":11070685419_1" function="internal">
        <lane id=":11070685419_1_0" index="0" allow="bicycle" speed="5.56" length="0.30" width="2.00" shape="484.35,2579.85 484.62,2579.72"/>
    </edge>
    <edge id=":11070741758_0" function="internal">
        <lane id=":11070741758_0_0" index="0" allow="bicycle" speed="5.56" length="5.28" width="2.00" shape="531.83,2538.32 528.59,2542.48"/>
    </edge>
    <edge id=":11070741758_1" function="internal">
        <lane id=":11070741758_1_0" index="0" allow="bicycle" speed="2.89" length="1.27" width="2.00" shape="531.83,2538.32 530.98,2538.60 530.62,2538.53"/>
    </edge>
    <edge id=":11070741758_4" function="internal">
        <lane id=":11070741758_4_0" index="0" allow="bicycle" speed="2.89" length="1.65" width="2.00" shape="530.62,2538.53 530.43,2538.49 530.19,2537.98 530.26,2537.09"/>
    </edge>
    <edge id=":11070741758_2" function="internal">
        <lane id=":11070741758_2_0" index="0" allow="bicycle" speed="5.56" length="5.28" width="2.00" shape="527.01,2541.25 530.26,2537.09"/>
    </edge>
    <edge id=":11070741758_3" function="internal">
        <lane id=":11070741758_3_0" index="0" allow="bicycle" speed="2.89" length="1.27" width="2.00" shape="527.01,2541.25 527.86,2540.96 528.23,2541.04"/>
    </edge>
    <edge id=":11070741758_5" function="internal">
        <lane id=":11070741758_5_0" index="0" allow="bicycle" speed="2.89" length="1.65" width="2.00" shape="528.23,2541.04 528.41,2541.08 528.65,2541.58 528.59,2542.48"/>
    </edge>
    <edge id=":11306819895_0" function="internal">
        <lane id=":11306819895_0_0" index="0" allow="rail_urban" speed="27.78" length="0.30" shape="2893.27,1405.83 2893.00,1405.96"/>
    </edge>
    <edge id=":135294293_0" function="internal">
        <lane id=":135294293_0_0" index="0" allow="bicycle" speed="2.89" length="2.92" width="2.00" shape="582.34,2371.36 583.24,2371.41 583.71,2371.71 583.75,2372.27 583.36,2373.08"/>
    </edge>
    <edge id=":137552078_0" function="internal">
        <lane id=":137552078_0_0" index="0" allow="bicycle" speed="2.89" length="2.92" width="2.00" shape="246.12,2539.88 245.23,2539.75 244.79,2539.41 244.80,2538.85 245.26,2538.08"/>
    </edge>
    <edge id=":1962530964_0" function="internal">
        <lane id=":1962530964_0_0" index="0" disallow="tram rail_urban rail rail_electric rail_fast ship" speed="7.29" length="9.18" shape="333.82,2491.21 331.93,2489.55 329.93,2488.68 327.81,2488.61 325.56,2489.33"/>
        <lane id=":1962530964_0_1" index="1" disallow="tram rail_urban rail rail_electric rail_fast ship" speed="8.85" length="13.91" shape="336.63,2489.55 333.72,2486.96 330.67,2485.58 327.49,2485.41 324.17,2486.46"/>
        <lane id=":1962530964_0_2" index="2" disallow="tram rail_urban rail rail_electric rail_fast ship" speed="10.18" length="18.66" shape="339.44,2487.90 335.51,2484.38 331.42,2482.48 327.17,2482.22 322.77,2483.58"/>
        <lane id=":1962530964_0_3" index="3" disallow="tram rail_urban rail rail_electric rail_fast ship" speed="11.11" length="23.40" shape="342.26,2486.24 337.30,2481.79 332.16,2479.38 326.85,2479.02 321.37,2480.70"/>
    </edge>
    <edge id=":1962530964_4" function="internal">
        <lane id=":1962530964_4_0" index="0" disallow="tram rail_urban rail rail_electric rail_fast ship" speed="8.33" length="33.28" shape="345.07,2484.59 336.69,2477.91 329.21,2474.61 323.12,2470.57 318.90,2461.70"/>
        <lane id=":1962530964_4_1" index="1" disallow="tram rail_urban rail rail_electric rail_fast ship" speed="8.33" length="33.28" shape="347.88,2482.94 339.57,2476.34 332.13,2473.11 326.06,2469.15 321.87,2460.39"/>
        <lane id=":1962530964_4_2" index="2" disallow="tram rail_urban rail rail_electric rail_fast ship" speed="8.33" length="33.28" shape="350.69,2481.28 342.45,2474.77 335.05,2471.61 329.01,2467.73 324.84,2459.07"/>
        <lane id=":1962530964_4_3" index="3" disallow="tram rail_urban rail rail_electric rail_fast ship" speed="8.33" length="33.28" shape="353.50,2479.63 345.33,2473.20 337.97,2470.11 331.96,2466.32 327.82,2457.76"/>
        <lane id=":1962530964_4_4" index="4" disallow="tram rail_urban rail rail_electric rail_fast ship" speed="8.33" length="33.28" shape="356.32,2477.98 348.21,2471.63 340.89,2468.61 334.90,2464.90 330.79,2456.45"/>
        <lane id=":1962530964_4_5" index="5" disallow="tram rail_urban rail rail_electric rail_fast ship" speed="8.33" length="33.28" shape="359.13,2476.32 351.09,2470.06 343.81,2467.12 337.85,2463.48 333.76,2455.13"/>
        <lane id=":1962530964_4_6" index="6" disallow="tram rail_urban rail rail_electric rail_fast ship" speed="8.33" length="33.28" shape="361.94,2474.67 353.97,2468.49 346.73,2465.62 340.79,2462.06 336.73,2453.82"/>
        <lane id=":1962530964_4_7" index="7" disallow="tram rail_urban rail rail_electric rail_fast ship" speed="8.33" length="33.28" shape="361.94,2474.67 354.59,2468.40 348.32,2464.90 343.29,2460.75 339.70,2452.50"/>
        <lane id=":1962530964_4_8" index="8" disallow="tram rail_urban rail rail_electric rail_fast ship" speed="8.33" length="33.28" shape="361.94,2474.67 355.18,2468.29 349.89,2464.20 345.80,2459.48 342.68,2451.19"/>
        <lane id=":1962530964_4_9" index="9" disallow="tram rail_urban rail rail_electric rail_fast ship" speed="8.33" length="33.28" shape="364.75,2473.02 357.85,2466.76 352.23,2462.81 348.11,2458.17 345.68,2449.86"/>
        <lane id=":1962530964_4_10" index="10" disallow="tram rail_urban rail rail_electric rail_fast ship" speed="8.33" length="33.28" shape="364.75,2473.02 358.42,2466.61 353.83,2462.10 350.69,2456.92 348.73,2448.51"/>
        <lane id=":1962530964_4_11" index="11" disallow="tram rail_urban rail rail_electric rail_fast ship" speed="8.33" length="33.28" shape="364.75,2473.02 358.94,2466.43 355.39,2461.41 353.27,2455.73 351.78,2447.17"/>
    </edge>
    <edge id=":1962530964_16" function="internal">
        <lane id=":1962530964_16_0" index="0" disallow="tram rail_urban rail rail_electric rail_fast ship" speed="6.99" length="8.87" shape="315.78,2469.18 317.64,2467.91 318.78,2466.24 319.20,2464.17 318.90,2461.70"/>
        <lane id=":1962530964_16_1" index="1" disallow="tram rail_urban rail rail_electric rail_fast ship" speed="8.56" length="13.77" shape="317.18,2472.06 320.01,2470.10 321.73,2467.50 322.35,2464.26 321.87,2460.39"/>
        <lane id=":1962530964_16_2" index="2" disallow="tram rail_urban rail rail_electric rail_fast ship" speed="9.89" length="18.66" shape="318.57,2474.94 322.38,2472.29 324.69,2468.77 325.51,2464.36 324.84,2459.07"/>
        <lane id=":1962530964_16_3" index="3" disallow="tram rail_urban rail rail_electric rail_fast ship" speed="11.06" length="23.55" shape="319.97,2477.82 324.74,2474.49 327.64,2470.03 328.67,2464.46 327.82,2457.76"/>
        <lane id=":1962530964_16_4" index="4" disallow="tram rail_urban rail rail_electric rail_fast ship" speed="11.11" length="26.22" shape="319.97,2477.82 326.03,2473.87 329.86,2468.99 331.44,2463.18 330.79,2456.45"/>
        <lane id=":1962530964_16_5" index="5" disallow="tram rail_urban rail rail_electric rail_fast ship" speed="11.11" length="28.97" shape="319.97,2477.82 327.32,2473.25 332.07,2467.95 334.22,2461.91 333.76,2455.13"/>
        <lane id=":1962530964_16_6" index="6" disallow="tram rail_urban rail rail_electric rail_fast ship" speed="11.11" length="31.79" shape="319.97,2477.82 328.61,2472.63 334.29,2466.90 336.99,2460.63 336.73,2453.82"/>
        <lane id=":1962530964_16_7" index="7" disallow="tram rail_urban rail rail_electric rail_fast ship" speed="11.11" length="34.66" shape="319.97,2477.82 329.90,2472.01 336.50,2465.86 339.77,2459.36 339.70,2452.50"/>
        <lane id=":1962530964_16_8" index="8" disallow="tram rail_urban rail rail_electric rail_fast ship" speed="11.11" length="37.56" shape="319.97,2477.82 331.19,2471.40 338.72,2464.82 342.54,2458.08 342.68,2451.19"/>
        <lane id=":1962530964_16_9" index="9" disallow="tram rail_urban rail rail_electric rail_fast ship" speed="11.11" length="40.22" shape="319.97,2477.82 331.96,2471.03 340.24,2464.11 344.81,2457.05 345.68,2449.86"/>
    </edge>
    <edge id=":1962530964_26" function="internal">
        <lane id=":1962530964_26_0" index="0" disallow="tram rail_urban rail rail_electric rail_fast ship" speed="3.65" length="4.67" shape="319.97,2477.82 321.40,2478.02 322.11,2478.56 322.10,2479.45 321.37,2480.70"/>
    </edge>
    <edge id=":21292970_0" function="internal">
        <lane id=":21292970_0_0" index="0" disallow="tram rail_urban rail rail_electric rail_fast ship" speed="6.49" length="9.03" shape="361.08,2513.33 358.77,2512.45 356.73,2512.52 354.97,2513.55 353.48,2515.53"/>
    </edge>
    <edge id=":21292970_1" function="internal">
        <lane id=":21292970_1_0" index="0" disallow="tram rail_urban rail rail_electric rail_fast ship" speed="8.33" length="12.48" shape="361.08,2513.33 357.29,2511.24 354.72,2509.75 352.24,2508.13 348.71,2505.61"/>
        <lane id=":21292970_1_1" index="1" disallow="tram rail_urban rail rail_electric rail_fast ship" speed="8.33" length="12.48" shape="362.63,2510.54 358.94,2508.49 356.44,2507.05 354.02,2505.47 350.59,2503.02"/>
        <lane id=":21292970_1_2" index="2" disallow="tram rail_urban rail rail_electric rail_fast ship" speed="8.33" length="12.48" shape="364.19,2507.74 360.60,2505.75 358.16,2504.35 355.81,2502.81 352.47,2500.43"/>
        <lane id=":21292970_1_3" index="3" disallow="tram rail_urban rail rail_electric rail_fast ship" speed="8.33" length="12.48" shape="365.74,2504.94 362.25,2503.01 359.88,2501.65 357.59,2500.15 354.34,2497.84"/>
        <lane id=":21292970_1_4" index="4" disallow="tram rail_urban rail rail_electric rail_fast ship" speed="8.33" length="12.48" shape="367.30,2502.15 363.90,2500.27 361.60,2498.94 359.38,2497.49 356.22,2495.25"/>
        <lane id=":21292970_1_5" index="5" disallow="tram rail_urban rail rail_electric rail_fast ship" speed="8.33" length="12.48" shape="368.85,2499.35 365.56,2497.53 363.32,2496.24 361.16,2494.84 358.10,2492.66"/>
        <lane id=":21292970_1_6" index="6" disallow="tram rail_urban rail rail_electric rail_fast ship" speed="8.33" length="12.48" shape="370.40,2496.55 367.21,2494.79 365.04,2493.54 362.95,2492.18 359.98,2490.07"/>
        <lane id=":21292970_1_7" index="7" disallow="tram rail_urban rail rail_electric rail_fast ship" speed="8.33" length="12.48" shape="371.96,2493.75 368.86,2492.04 366.76,2490.84 364.73,2489.52 361.86,2487.47"/>
        <lane id=":21292970_1_8" index="8" disallow="tram rail_urban rail rail_electric rail_fast ship" speed="8.33" length="12.48" shape="373.51,2490.96 370.52,2489.30 368.48,2488.14 366.52,2486.86 363.73,2484.88"/>
        <lane id=":21292970_1_9" index="9" disallow="tram rail_urban rail rail_electric rail_fast ship" speed="8.33" length="12.48" shape="375.07,2488.16 372.17,2486.56 370.20,2485.44 368.31,2484.21 365.61,2482.29"/>
        <lane id=":21292970_1_10" index="10" disallow="tram rail_urban rail rail_electric rail_fast ship" speed="8.33" length="12.48" shape="376.62,2485.36 373.82,2483.82 371.92,2482.74 370.09,2481.55 367.49,2479.70"/>
        <lane id=":21292970_1_11" index="11" disallow="tram rail_urban rail rail_electric rail_fast ship" speed="8.33" length="12.48" shape="378.17,2482.56 375.48,2481.08 373.65,2480.03 371.88,2478.89 369.37,2477.11"/>
    </edge>
    <edge id=":21292970_13" function="internal">
        <lane id=":21292970_13_0" index="0" disallow="tram rail_urban rail rail_electric rail_fast ship" speed="7.00" length="9.57" shape="350.68,2514.00 351.57,2511.60 351.55,2509.41 350.59,2507.41 348.71,2505.61"/>
        <lane id=":21292970_13_1" index="1" disallow="tram rail_urban rail rail_electric rail_fast ship" speed="7.77" length="12.04" shape="350.68,2514.00 352.27,2510.38 352.79,2507.35 352.23,2504.89 350.59,2503.02"/>
        <lane id=":21292970_13_2" index="2" disallow="tram rail_urban rail rail_electric rail_fast ship" speed="8.33" length="14.68" shape="350.68,2514.00 352.97,2509.16 354.03,2505.28 353.86,2502.37 352.47,2500.43"/>
        <lane id=":21292970_13_3" index="3" disallow="tram rail_urban rail rail_electric rail_fast ship" speed="8.33" length="17.44" shape="350.68,2514.00 353.67,2507.93 355.27,2503.22 355.50,2499.85 354.34,2497.84"/>
        <lane id=":21292970_13_4" index="4" disallow="tram rail_urban rail rail_electric rail_fast ship" speed="8.33" length="20.28" shape="350.68,2514.00 354.36,2506.71 356.52,2501.15 357.14,2497.33 356.22,2495.25"/>
        <lane id=":21292970_13_5" index="5" disallow="tram rail_urban rail rail_electric rail_fast ship" speed="8.33" length="23.17" shape="350.68,2514.00 355.06,2505.49 357.76,2499.09 358.77,2494.81 358.10,2492.66"/>
        <lane id=":21292970_13_6" index="6" disallow="tram rail_urban rail rail_electric rail_fast ship" speed="8.33" length="26.12" shape="350.68,2514.00 355.76,2504.26 359.00,2497.03 360.41,2492.30 359.98,2490.07"/>
        <lane id=":21292970_13_7" index="7" disallow="tram rail_urban rail rail_electric rail_fast ship" speed="8.33" length="29.11" shape="350.68,2514.00 356.46,2503.04 360.25,2494.96 362.05,2489.78 361.86,2487.47"/>
        <lane id=":21292970_13_8" index="8" disallow="tram rail_urban rail rail_electric rail_fast ship" speed="8.33" length="32.14" shape="350.68,2514.00 357.15,2501.82 361.49,2492.90 363.68,2487.26 363.73,2484.88"/>
        <lane id=":21292970_13_9" index="9" disallow="tram rail_urban rail rail_electric rail_fast ship" speed="8.33" length="35.20" shape="350.68,2514.00 357.85,2500.59 362.73,2490.84 365.32,2484.74 365.61,2482.29"/>
    </edge>
    <edge id=":21292970_23" function="internal">
        <lane id=":21292970_23_0" index="0" disallow="tram rail_urban rail rail_electric rail_fast ship" speed="3.65" length="4.67" shape="350.68,2514.00 351.95,2513.33 352.85,2513.36 353.36,2514.10 353.48,2515.53"/>
    </edge>
    <edge id=":21659957_0" function="internal">
        <lane id=":21659957_0_0" index="0" allow="bus bicycle" speed="8.33" length="0.19" shape="384.16,2606.82 384.19,2606.63"/>
    </edge>
    <edge id=":21659957_1" function="internal">
        <lane id=":21659957_1_0" index="0" disallow="tram rail_urban rail rail_electric rail_fast ship" speed="8.33" length="0.17" shape="377.82,2605.93 377.80,2606.10"/>
        <lane id=":21659957_1_1" index="1" disallow="tram rail_urban rail rail_electric rail_fast ship" speed="8.33" length="0.17" shape="381.01,2606.28 380.98,2606.46"/>
    </edge>
    <edge id=":21660045_0" function="internal">
        <lane id=":21660045_0_0" index="0" disallow="tram rail_urban rail rail_electric rail_fast ship" speed="3.65" length="4.67" shape="232.35,2421.58 231.30,2420.59 231.04,2419.73 231.57,2419.01 232.89,2418.42"/>
    </edge>
    <edge id=":21660275_0" function="internal">
        <lane id=":21660275_0_0" index="0" allow="pedestrian delivery bicycle" speed="3.92" length="2.33" shape="651.01,2594.54 650.80,2595.13 650.44,2595.54 649.95,2595.76 649.33,2595.80"/>
    </edge>
    <edge id=":21660967_0" function="internal">
        <lane id=":21660967_0_0" index="0" allow="bus bicycle" speed="8.33" length="0.10" shape="367.63,2758.87 367.63,2758.82"/>
    </edge>
    <edge id=":21660967_1" function="internal">
        <lane id=":21660967_1_0" index="0" disallow="tram rail_urban rail rail_electric rail_fast ship" speed="8.33" length="0.11" shape="361.25,2758.36 361.26,2758.19"/>
        <lane id=":21660967_1_1" index="1" disallow="tram rail_urban rail rail_electric rail_fast ship" speed="8.33" length="0.11" shape="364.44,2758.59 364.45,2758.53"/>
    </edge>
    <edge id=":21660969_0" function="internal">
        <lane id=":21660969_0_0" index="0" allow="bus bicycle" speed="3.65" length="4.67" shape="345.70,2981.85 344.82,2982.99 343.99,2983.33 343.22,2982.88 342.51,2981.62"/>
    </edge>
    <edge id=":270087680_0" function="internal">
        <lane id=":270087680_0_0" index="0" allow="pedestrian delivery bicycle" speed="5.56" length="0.87" shape="540.64,2544.22 540.42,2544.08 540.29,2543.96 540.18,2543.82 540.06,2543.59"/>
    </edge>
    <edge id=":272341727_0" function="internal">
        <lane id=":272341727_0_0" index="0" disallow="tram rail_urban rail rail_electric rail_fast ship" speed="3.65" length="4.67" shape="302.33,2610.26 301.06,2610.94 300.17,2610.91 299.65,2610.19 299.51,2608.75"/>
    </edge>
    <edge id=":3670340323_0" function="internal">
        <lane id=":3670340323_0_0" index="0" disallow="tram rail_urban rail rail_electric rail_fast ship" speed="8.33" length="0.33" shape="552.28,2463.58 551.94,2463.52"/>
        <lane id=":3670340323_0_1" index="1" disallow="tram rail_urban rail rail_electric rail_fast ship" speed="8.33" length="0.33" shape="552.77,2460.41 552.46,2460.37"/>
    </edge>
    <edge id=":3670340323_2" function="internal">
        <lane id=":3670340323_2_0" index="0" disallow="tram rail_urban rail rail_electric rail_fast ship" speed="8.33" length="0.26" shape="553.51,2454.05 553.75,2454.09"/>
        <lane id=":3670340323_2_1" index="1" disallow="tram rail_urban rail rail_electric rail_fast ship" speed="8.33" length="0.26" shape="552.99,2457.21 553.26,2457.25"/>
    </edge>
    <edge id=":3670342625_0" function="internal">
        <lane id=":3670342625_0_0" index="0" disallow="tram rail_urban rail rail_electric rail_fast ship" speed="8.33" length="0.29" shape="562.33,2471.53 562.27,2471.80"/>
    </edge>
    <edge id=":3670345634_0" function="internal">
        <lane id=":3670345634_0_0" index="0" disallow="tram rail_urban rail rail_electric rail_fast ship" speed="8.33" length="0.26" shape="520.84,2458.46 520.60,2458.42"/>
        <lane id=":3670345634_0_1" index="1" disallow="tram rail_urban rail rail_electric rail_fast ship" speed="8.33" length="0.26" shape="521.39,2455.31 521.11,2455.27"/>
    </edge>
    <edge id=":3670345634_2" function="internal">
        <lane id=":3670345634_2_0" index="0" disallow="tram rail_urban rail rail_electric rail_fast ship" speed="8.33" length="0.33" shape="522.13,2448.95 522.47,2449.00"/>
        <lane id=":3670345634_2_1" index="1" disallow="tram rail_urban rail rail_electric rail_fast ship" speed="8.33" length="0.33" shape="521.62,2452.11 521.93,2452.16"/>
    </edge>
    <edge id=":3670345635_0" function="internal">
        <lane id=":3670345635_0_0" index="0" disallow="tram rail_urban rail rail_electric rail_fast ship" speed="8.33" length="0.25" shape="548.43,2462.94 548.20,2462.90"/>
        <lane id=":3670345635_0_1" index="1" disallow="tram rail_urban rail rail_electric rail_fast ship" speed="8.33" length="0.25" shape="548.96,2459.78 548.69,2459.74"/>
    </edge>
    <edge id=":3670345635_2" function="internal">
        <lane id=":3670345635_2_0" index="0" disallow="tram rail_urban rail rail_electric rail_fast ship" speed="8.33" length="0.33" shape="549.66,2453.41 550.01,2453.47"/>
        <lane id=":3670345635_2_1" index="1" disallow="tram rail_urban rail rail_electric rail_fast ship" speed="8.33" length="0.33" shape="549.17,2456.58 549.48,2456.62"/>
    </edge>
    <edge id=":3670345637_0" function="internal">
        <lane id=":3670345637_0_0" index="0" disallow="tram rail_urban rail rail_electric rail_fast ship" speed="8.33" length="5.29" shape="499.41,2508.55 494.85,2505.77"/>
        <lane id=":3670345637_0_1" index="1" disallow="tram rail_urban rail rail_electric rail_fast ship" speed="8.33" length="5.29" shape="501.03,2505.79 496.55,2503.06"/>
    </edge>
    <edge id=":3670345637_2" function="internal">
        <lane id=":3670345637_2_0" index="0" disallow="tram rail_urban rail rail_electric rail_fast ship" speed="8.33" length="5.10" shape="499.96,2497.64 504.27,2500.27"/>
        <lane id=":3670345637_2_1" index="1" disallow="tram rail_urban rail rail_electric rail_fast ship" speed="8.33" length="5.10" shape="498.25,2500.35 502.65,2503.03"/>
    </edge>
    <edge id=":3670345638_0" function="internal">
        <lane id=":3670345638_0_0" index="0" disallow="tram rail_urban rail rail_electric rail_fast ship" speed="8.33" length="0.30" shape="551.40,2509.61 551.37,2509.69 551.35,2509.75 551.32,2509.81 551.28,2509.89"/>
    </edge>
    <edge id=":3670345639_0" function="internal">
        <lane id=":3670345639_0_0" index="0" disallow="tram rail_urban rail rail_electric rail_fast ship" speed="8.33" length="0.30" shape="548.90,2514.14 548.75,2514.40"/>
    </edge>
    <edge id=":3670345641_0" function="internal">
        <lane id=":3670345641_0_0" index="0" disallow="tram rail_urban rail rail_electric rail_fast ship" speed="8.33" length="0.10" shape="529.51,2526.25 529.47,2526.23"/>
        <lane id=":3670345641_0_1" index="1" disallow="tram rail_urban rail rail_electric rail_fast ship" speed="8.33" length="0.10" shape="531.08,2523.47 531.09,2523.47"/>
    </edge>
    <edge id=":3670345641_2" function="internal">
        <lane id=":3670345641_2_0" index="0" disallow="tram rail_urban rail rail_electric rail_fast ship" speed="8.33" length="0.10" shape="534.33,2517.95 534.23,2517.89"/>
        <lane id=":3670345641_2_1" index="1" disallow="tram rail_urban rail rail_electric rail_fast ship" speed="8.33" length="0.10" shape="532.71,2520.71 532.66,2520.68"/>
    </edge>
    <edge id=":3670345642_0" function="internal">
        <lane id=":3670345642_0_0" index="0" disallow="tram rail_urban rail rail_electric rail_fast ship" speed="8.33" length="0.19" shape="549.63,2534.50 549.46,2534.40"/>
    </edge>
    <edge id=":3670345642_1" function="internal">
        <lane id=":3670345642_1_0" index="0" disallow="tram rail_urban rail rail_electric rail_fast ship" speed="8.33" length="1.39" shape="550.10,2531.04 551.29,2531.76"/>
    </edge>
    <edge id=":3670345644_0" function="internal">
        <lane id=":3670345644_0_0" index="0" disallow="tram rail_urban rail rail_electric rail_fast ship" speed="8.33" length="5.20" shape="533.15,2539.23 529.99,2543.35"/>
    </edge>
    <edge id=":368313_0" function="internal">
        <lane id=":368313_0_0" index="0" disallow="tram rail_urban rail rail_electric rail_fast ship" speed="7.31" length="10.09" shape="316.07,2444.08 315.63,2441.68 314.39,2439.82 312.34,2438.48 309.49,2437.68"/>
        <lane id=":368313_0_1" index="1" disallow="tram rail_urban rail rail_electric rail_fast ship" speed="8.04" length="12.39" shape="316.07,2444.08 315.64,2440.27 314.49,2437.40 312.61,2435.49 310.00,2434.53"/>
    </edge>
    <edge id=":368313_2" function="internal">
        <lane id=":368313_2_0" index="0" disallow="tram rail_urban rail rail_electric rail_fast ship" speed="8.33" length="18.63" shape="316.07,2444.08 315.94,2437.94 315.96,2433.71 316.42,2429.53 317.61,2423.52"/>
        <lane id=":368313_2_1" index="1" disallow="tram rail_urban rail rail_electric rail_fast ship" speed="8.33" length="18.63" shape="319.27,2444.04 319.14,2438.00 319.17,2433.86 319.64,2429.75 320.81,2423.85"/>
        <lane id=":368313_2_2" index="2" disallow="tram rail_urban rail rail_electric rail_fast ship" speed="8.33" length="18.63" shape="322.47,2443.99 322.35,2438.07 322.39,2434.00 322.86,2429.98 324.01,2424.18"/>
        <lane id=":368313_2_3" index="3" disallow="tram rail_urban rail rail_electric rail_fast ship" speed="8.33" length="18.63" shape="325.67,2443.94 325.56,2438.13 325.61,2434.14 326.08,2430.20 327.21,2424.52"/>
        <lane id=":368313_2_4" index="4" disallow="tram rail_urban rail rail_electric rail_fast ship" speed="8.33" length="18.63" shape="328.87,2443.89 328.77,2438.20 328.83,2434.29 329.30,2430.42 330.42,2424.85"/>
        <lane id=":368313_2_5" index="5" disallow="tram rail_urban rail rail_electric rail_fast ship" speed="8.33" length="18.63" shape="332.07,2443.85 331.97,2438.27 332.04,2434.43 332.52,2430.64 333.62,2425.18"/>
        <lane id=":368313_2_6" index="6" disallow="tram rail_urban rail rail_electric rail_fast ship" speed="8.33" length="18.63" shape="335.27,2443.80 335.18,2438.33 335.26,2434.58 335.74,2430.86 336.82,2425.51"/>
        <lane id=":368313_2_7" index="7" disallow="tram rail_urban rail rail_electric rail_fast ship" speed="8.33" length="18.63" shape="338.47,2443.75 338.39,2438.40 338.48,2434.72 338.96,2431.08 340.03,2425.84"/>
        <lane id=":368313_2_8" index="8" disallow="tram rail_urban rail rail_electric rail_fast ship" speed="8.33" length="18.63" shape="341.67,2443.70 341.59,2438.46 341.70,2434.86 342.17,2431.30 343.23,2426.18"/>
        <lane id=":368313_2_9" index="9" disallow="tram rail_urban rail rail_electric rail_fast ship" speed="8.33" length="18.63" shape="344.87,2443.66 344.80,2438.53 344.91,2435.01 345.39,2431.53 346.43,2426.51"/>
        <lane id=":368313_2_10" index="10" disallow="tram rail_urban rail rail_electric rail_fast ship" speed="8.33" length="18.63" shape="348.07,2443.61 347.58,2438.62 347.76,2435.18 348.47,2431.76 349.63,2426.84"/>