<?xml version="1.0" encoding="UTF-8"?>

<!-- generated on 2024-02-11 18:56:07 by Eclipse SUMO netedit Version 1.19.0
-->

<routes xmlns:xsi="http://www.w3.org/2001/XMLSchema-instance" xsi:noNamespaceSchemaLocation="http://sumo.dlr.de/xsd/routes_file.xsd">
    <!-- Vehicles, persons and containers (sorted by depart) -->
    <trip id="t_0" depart="0.00" departLane="0" from="544549304#4" to="314456037" via="193476880"/>
</routes>
