<?xml version="1.0" encoding="UTF-8"?>

<!-- generated on 2024-01-31 00:01:27 by Eclipse SUMO netconvert Version 1.19.0
<configuration xmlns:xsi="http://www.w3.org/2001/XMLSchema-instance" xsi:noNamespaceSchemaLocation="http://sumo.dlr.de/xsd/netconvertConfiguration.xsd">

    <input>
        <osm-files value="osm/shinobazu.osm"/>
    </input>

    <projection>
        <proj.utm value="true"/>
    </projection>

</configuration>
-->

<net version="1.16" junctionCornerDetail="5" limitTurnSpeed="5.50" xmlns:xsi="http://www.w3.org/2001/XMLSchema-instance" xsi:noNamespaceSchemaLocation="http://sumo.dlr.de/xsd/net_file.xsd">

    <location netOffset="-388419.50,-3952066.33" convBoundary="0.00,0.00,618.11,1162.63" origBoundary="139.766400,35.706260,139.773336,35.716706" projParameter="+proj=utm +zone=54 +ellps=WGS84 +datum=WGS84 +units=m +no_defs"/>

    <type id="highway.footway" priority="1" numLanes="1" speed="2.78" allow="pedestrian" oneway="1" width="2.00"/>
    <type id="highway.residential" priority="3" numLanes="1" speed="13.89" disallow="tram rail_urban rail rail_electric rail_fast ship" oneway="0"/>
    <type id="highway.secondary" priority="11" numLanes="1" speed="27.78" disallow="tram rail_urban rail rail_electric rail_fast ship" oneway="0"/>
    <type id="highway.service" priority="1" numLanes="1" speed="5.56" allow="pedestrian delivery bicycle" oneway="0"/>
    <type id="highway.unclassified" priority="4" numLanes="1" speed="13.89" disallow="tram rail_urban rail rail_electric rail_fast ship" oneway="0"/>
    <type id="railway.subway" priority="18" numLanes="1" speed="27.78" allow="rail_urban" oneway="1"/>

    <edge id=":1034904147_0" function="internal">
        <lane id=":1034904147_0_0" index="0" disallow="tram rail_urban rail rail_electric rail_fast ship" speed="3.65" length="4.67" shape="302.70,221.99 303.57,220.83 304.39,220.48 305.17,220.92 305.90,222.17"/>
    </edge>
    <edge id=":1035125885_0" function="internal">
        <lane id=":1035125885_0_0" index="0" disallow="tram rail_urban rail rail_electric rail_fast ship" speed="10.54" length="5.48" shape="251.45,333.96 249.87,334.34 248.79,334.70 247.84,335.30 246.67,336.38"/>
    </edge>
    <edge id=":1035125885_1" function="internal">
        <lane id=":1035125885_1_0" index="0" disallow="tram rail_urban rail rail_electric rail_fast ship" speed="4.95" length="5.11" shape="251.45,333.96 250.04,334.10 248.96,333.75 248.21,332.89 247.79,331.54"/>
    </edge>
    <edge id=":1065718064_0" function="internal">
        <lane id=":1065718064_0_0" index="0" disallow="tram rail_urban rail rail_electric rail_fast ship" speed="11.11" length="0.35" shape="190.27,700.36 190.20,700.74"/>
        <lane id=":1065718064_0_1" index="1" disallow="tram rail_urban rail rail_electric rail_fast ship" speed="11.11" length="0.35" shape="187.11,699.85 187.05,700.16"/>
    </edge>
    <edge id=":1065718064_2" function="internal">
        <lane id=":1065718064_2_0" index="0" disallow="tram rail_urban rail rail_electric rail_fast ship" speed="11.11" length="0.19" shape="180.76,698.99 180.79,698.84"/>
        <lane id=":1065718064_2_1" index="1" disallow="tram rail_urban rail rail_electric rail_fast ship" speed="11.11" length="0.19" shape="183.91,699.57 183.95,699.35"/>
    </edge>
    <edge id=":1067372451_0" function="internal">
        <lane id=":1067372451_0_0" index="0" disallow="tram rail_urban rail rail_electric rail_fast ship" speed="3.65" length="4.67" shape="65.83,1044.81 64.56,1045.51 63.67,1045.49 63.14,1044.77 62.99,1043.34"/>
    </edge>
    <edge id=":1067372470_0" function="internal">
        <lane id=":1067372470_0_0" index="0" disallow="tram rail_urban rail rail_electric rail_fast ship" speed="11.11" length="1.20" shape="130.59,926.37 130.44,926.76 130.34,927.02 130.22,927.28 130.03,927.65"/>
        <lane id=":1067372470_0_1" index="1" disallow="tram rail_urban rail rail_electric rail_fast ship" speed="11.11" length="1.20" shape="127.58,925.28 127.47,925.56 127.40,925.75 127.31,925.93 127.18,926.19"/>
    </edge>
    <edge id=":1067372470_2" function="internal">
        <lane id=":1067372470_2_0" index="0" disallow="tram rail_urban rail rail_electric rail_fast ship" speed="11.11" length="0.40" shape="121.48,923.29 121.50,923.23 121.52,923.20 121.54,923.16 121.56,923.10"/>
        <lane id=":1067372470_2_1" index="1" disallow="tram rail_urban rail rail_electric rail_fast ship" speed="11.11" length="0.40" shape="124.33,924.74 124.41,924.58 124.46,924.47 124.51,924.36 124.57,924.19"/>
    </edge>
    <edge id=":1067418242_0" function="internal">
        <lane id=":1067418242_0_0" index="0" disallow="tram rail_urban rail rail_electric rail_fast ship" speed="11.11" length="10.08" shape="244.89,382.19 242.78,384.24 241.37,385.68 240.04,387.18 238.17,389.45"/>
        <lane id=":1067418242_0_1" index="1" disallow="tram rail_urban rail rail_electric rail_fast ship" speed="11.11" length="10.08" shape="242.66,379.90 240.47,382.02 239.01,383.51 237.63,385.08 235.69,387.43"/>
    </edge>
    <edge id=":1067418242_2" function="internal">
        <lane id=":1067418242_2_0" index="0" disallow="tram rail_urban rail rail_electric rail_fast ship" speed="3.65" length="1.44" shape="242.66,379.90 241.24,380.16"/>
    </edge>
    <edge id=":1067418242_8" function="internal">
        <lane id=":1067418242_8_0" index="0" disallow="tram rail_urban rail rail_electric rail_fast ship" speed="3.65" length="3.23" shape="241.24,380.16 240.39,379.86 240.12,379.01 240.43,377.60"/>
    </edge>
    <edge id=":1067418242_3" function="internal">
        <lane id=":1067418242_3_0" index="0" disallow="tram rail_urban rail rail_electric rail_fast ship" speed="6.03" length="7.66" shape="231.52,376.44 232.93,377.41 234.51,377.54 236.27,376.84 238.20,375.31"/>
    </edge>
    <edge id=":1067418242_4" function="internal">
        <lane id=":1067418242_4_0" index="0" disallow="tram rail_urban rail rail_electric rail_fast ship" speed="7.96" length="12.68" shape="231.52,376.44 234.43,379.91 236.10,382.90 236.52,385.40 235.69,387.43"/>
    </edge>
    <edge id=":1067418242_5" function="internal">
        <lane id=":1067418242_5_0" index="0" disallow="tram rail_urban rail rail_electric rail_fast ship" speed="11.11" length="10.83" shape="230.73,383.38 232.80,380.86 234.28,379.18 235.85,377.59 238.20,375.31"/>
        <lane id=":1067418242_5_1" index="1" disallow="tram rail_urban rail rail_electric rail_fast ship" speed="11.11" length="10.83" shape="233.21,385.41 235.21,382.97 236.65,381.35 238.16,379.80 240.43,377.60"/>
    </edge>
    <edge id=":1067418242_7" function="internal">
        <lane id=":1067418242_7_0" index="0" disallow="tram rail_urban rail rail_electric rail_fast ship" speed="3.65" length="1.44" shape="233.21,385.41 234.58,384.98"/>
    </edge>
    <edge id=":1067418242_9" function="internal">
        <lane id=":1067418242_9_0" index="0" disallow="tram rail_urban rail rail_electric rail_fast ship" speed="3.65" length="3.23" shape="234.58,384.98 235.46,385.18 235.82,385.99 235.69,387.43"/>
    </edge>
    <edge id=":1067418261_0" function="internal">
        <lane id=":1067418261_0_0" index="0" disallow="tram rail_urban rail rail_electric rail_fast ship" speed="13.89" length="3.88" shape="229.45,372.96 229.92,374.01 230.24,374.75 230.64,375.43 231.38,376.29"/>
    </edge>
    <edge id=":1067419103_0" function="internal">
        <lane id=":1067419103_0_0" index="0" disallow="tram rail_urban rail rail_electric rail_fast ship" speed="11.11" length="0.21" shape="436.24,371.48 436.06,371.44"/>
        <lane id=":1067419103_0_1" index="1" disallow="tram rail_urban rail rail_electric rail_fast ship" speed="11.11" length="0.21" shape="436.98,368.37 436.74,368.31"/>
    </edge>
    <edge id=":1067419103_2" function="internal">
        <lane id=":1067419103_2_0" index="0" disallow="tram rail_urban rail rail_electric rail_fast ship" speed="11.11" length="0.35" shape="438.10,362.06 438.47,362.14"/>
        <lane id=":1067419103_2_1" index="1" disallow="tram rail_urban rail rail_electric rail_fast ship" speed="11.11" length="0.35" shape="437.42,365.19 437.73,365.25"/>
    </edge>
    <edge id=":1067419209_0" function="internal">
        <lane id=":1067419209_0_0" index="0" disallow="tram rail_urban rail rail_electric rail_fast ship" speed="13.89" length="5.03" shape="228.88,360.66 228.37,362.02 228.28,363.03 228.36,364.08 228.31,365.58"/>
    </edge>
    <edge id=":288380018_0" function="internal">
        <lane id=":288380018_0_0" index="0" disallow="tram rail_urban rail rail_electric rail_fast ship" speed="13.89" length="0.10" shape="311.39,238.55 311.39,238.55"/>
        <lane id=":288380018_0_1" index="1" disallow="tram rail_urban rail rail_electric rail_fast ship" speed="13.89" length="0.10" shape="308.19,238.37 308.19,238.37"/>
        <lane id=":288380018_0_2" index="2" disallow="tram rail_urban rail rail_electric rail_fast ship" speed="13.89" length="0.10" shape="305.00,238.19 305.00,238.19"/>
    </edge>
    <edge id=":288380018_3" function="internal">
        <lane id=":288380018_3_0" index="0" disallow="tram rail_urban rail rail_electric rail_fast ship" speed="13.89" length="0.10" shape="298.61,237.82 298.61,237.83"/>
        <lane id=":288380018_3_1" index="1" disallow="tram rail_urban rail rail_electric rail_fast ship" speed="13.89" length="0.10" shape="301.80,238.00 301.80,238.01"/>
    </edge>
    <edge id=":288380019_0" function="internal">
        <lane id=":288380019_0_0" index="0" disallow="tram rail_urban rail rail_electric rail_fast ship" speed="11.11" length="22.14" shape="308.26,344.42 301.98,343.67 297.19,343.82 292.64,345.19 287.08,348.11"/>
    </edge>
    <edge id=":288380019_1" function="internal">
        <lane id=":288380019_1_0" index="0" disallow="tram rail_urban rail rail_electric rail_fast ship" speed="12.50" length="28.67" shape="308.26,344.42 300.62,342.32 293.11,339.00 286.55,335.69 281.79,333.61"/>
    </edge>
    <edge id=":288380019_2" function="internal">
        <lane id=":288380019_2_0" index="0" disallow="tram rail_urban rail rail_electric rail_fast ship" speed="9.93" length="21.48" shape="308.72,341.25 302.39,339.60 298.02,336.81 295.60,332.86 295.13,327.76"/>
    </edge>
    <edge id=":288380019_3" function="internal">
        <lane id=":288380019_3_0" index="0" disallow="tram rail_urban rail rail_electric rail_fast ship" speed="3.65" length="2.34" shape="308.72,341.25 307.65,340.29 307.37,339.44"/>
    </edge>
    <edge id=":288380019_14" function="internal">
        <lane id=":288380019_14_0" index="0" disallow="tram rail_urban rail rail_electric rail_fast ship" speed="3.65" length="2.34" shape="307.37,339.44 307.88,338.70 309.18,338.09"/>
    </edge>
    <edge id=":288380019_4" function="internal">
        <lane id=":288380019_4_0" index="0" disallow="tram rail_urban rail rail_electric rail_fast ship" speed="6.63" length="9.03" shape="304.69,328.63 304.82,331.08 305.68,332.95 307.29,334.23 309.65,334.92"/>
    </edge>
    <edge id=":288380019_5" function="internal">
        <lane id=":288380019_5_0" index="0" disallow="tram rail_urban rail rail_electric rail_fast ship" speed="12.50" length="27.11" shape="304.69,328.63 303.26,333.46 299.85,338.31 294.46,343.20 287.08,348.11"/>
        <lane id=":288380019_5_1" index="1" disallow="tram rail_urban rail rail_electric rail_fast ship" speed="12.50" length="24.00" shape="301.50,328.34 300.24,332.40 297.15,336.58 292.26,340.88 285.55,345.30"/>
    </edge>
    <edge id=":288380019_7" function="internal">
        <lane id=":288380019_7_0" index="0" disallow="tram rail_urban rail rail_electric rail_fast ship" speed="8.89" length="20.43" shape="298.32,328.05 296.94,332.21 293.73,334.52 288.67,334.99 281.79,333.61"/>
    </edge>
    <edge id=":288380019_8" function="internal">
        <lane id=":288380019_8_0" index="0" disallow="tram rail_urban rail rail_electric rail_fast ship" speed="3.65" length="4.67" shape="298.32,328.05 297.41,329.18 296.58,329.50 295.82,329.03 295.13,327.76"/>
    </edge>
    <edge id=":288380019_9" function="internal">
        <lane id=":288380019_9_0" index="0" disallow="tram rail_urban rail rail_electric rail_fast ship" speed="5.48" length="9.63" shape="282.48,339.68 284.92,337.84 285.63,336.21 284.58,334.80 281.79,333.61"/>
    </edge>
    <edge id=":288380019_10" function="internal">
        <lane id=":288380019_10_0" index="0" disallow="tram rail_urban rail rail_electric rail_fast ship" speed="11.52" length="16.02" shape="282.48,339.68 286.38,336.97 289.26,334.03 291.11,330.87 291.94,327.48"/>
    </edge>
    <edge id=":288380019_11" function="internal">
        <lane id=":288380019_11_0" index="0" disallow="tram rail_urban rail rail_electric rail_fast ship" speed="11.11" length="27.14" shape="282.48,339.68 288.97,336.59 295.58,334.85 302.44,334.34 309.65,334.92"/>
        <lane id=":288380019_11_1" index="1" disallow="tram rail_urban rail rail_electric rail_fast ship" speed="11.11" length="27.14" shape="284.01,342.49 290.19,339.46 296.12,337.84 302.29,337.45 309.18,338.09"/>
    </edge>
    <edge id=":288380019_13" function="internal">
        <lane id=":288380019_13_0" index="0" disallow="tram rail_urban rail rail_electric rail_fast ship" speed="3.65" length="2.34" shape="284.01,342.49 285.45,342.62 286.18,343.13"/>
    </edge>
    <edge id=":288380019_15" function="internal">
        <lane id=":288380019_15_0" index="0" disallow="tram rail_urban rail rail_electric rail_fast ship" speed="3.65" length="2.34" shape="286.18,343.13 286.22,344.02 285.55,345.30"/>
    </edge>
    <edge id=":3259269174_0" function="internal">
        <lane id=":3259269174_0_0" index="0" disallow="tram rail_urban rail rail_electric rail_fast ship" speed="13.89" length="6.92" shape="278.88,332.76 276.91,332.21 275.53,331.92 274.12,331.79 272.07,331.69"/>
    </edge>
    <edge id=":3259269190_0" function="internal">
        <lane id=":3259269190_0_0" index="0" disallow="tram rail_urban rail rail_electric rail_fast ship" speed="11.11" length="0.34" shape="431.95,370.55 431.60,370.47"/>
        <lane id=":3259269190_0_1" index="1" disallow="tram rail_urban rail rail_electric rail_fast ship" speed="11.11" length="0.34" shape="432.63,367.42 432.32,367.35"/>
    </edge>
    <edge id=":3259269190_2" function="internal">
        <lane id=":3259269190_2_0" index="0" disallow="tram rail_urban rail rail_electric rail_fast ship" speed="11.11" length="0.24" shape="433.78,361.12 433.99,361.16"/>
        <lane id=":3259269190_2_1" index="1" disallow="tram rail_urban rail rail_electric rail_fast ship" speed="11.11" length="0.24" shape="433.05,364.23 433.31,364.29"/>
    </edge>
    <edge id=":3259269201_0" function="internal">
        <lane id=":3259269201_0_0" index="0" disallow="tram rail_urban rail rail_electric rail_fast ship" speed="11.11" length="5.48" shape="315.88,345.67 310.55,344.76"/>
        <lane id=":3259269201_0_1" index="1" disallow="tram rail_urban rail rail_electric rail_fast ship" speed="11.11" length="5.48" shape="316.48,342.53 311.02,341.59"/>
    </edge>
    <edge id=":3259269201_2" function="internal">
        <lane id=":3259269201_2_0" index="0" disallow="tram rail_urban rail rail_electric rail_fast ship" speed="11.11" length="5.76" shape="311.95,335.26 317.69,336.24"/>
        <lane id=":3259269201_2_1" index="1" disallow="tram rail_urban rail rail_electric rail_fast ship" speed="11.11" length="5.76" shape="311.48,338.42 317.09,339.38"/>
    </edge>
    <edge id=":3259269210_0" function="internal">
        <lane id=":3259269210_0_0" index="0" disallow="tram rail_urban rail rail_electric rail_fast ship" speed="11.11" length="7.68" shape="286.39,348.52 284.47,349.64 283.17,350.44 281.92,351.30 280.14,352.63"/>
        <lane id=":3259269210_0_1" index="1" disallow="tram rail_urban rail rail_electric rail_fast ship" speed="11.11" length="7.68" shape="284.77,345.76 282.75,346.94 281.39,347.77 280.08,348.68 278.21,350.07"/>
    </edge>
    <edge id=":3259269210_2" function="internal">
        <lane id=":3259269210_2_0" index="0" disallow="tram rail_urban rail rail_electric rail_fast ship" speed="11.11" length="8.42" shape="274.34,344.97 276.39,343.44 277.83,342.45 279.32,341.54 281.52,340.24"/>
        <lane id=":3259269210_2_1" index="1" disallow="tram rail_urban rail rail_electric rail_fast ship" speed="11.11" length="8.42" shape="276.27,347.52 278.23,346.06 279.61,345.11 281.04,344.24 283.14,343.00"/>
    </edge>
    <edge id=":3259269221_0" function="internal">
        <lane id=":3259269221_0_0" index="0" disallow="tram rail_urban rail rail_electric rail_fast ship" speed="13.89" length="5.15" shape="305.54,318.88 305.10,324.06"/>
        <lane id=":3259269221_0_1" index="1" disallow="tram rail_urban rail rail_electric rail_fast ship" speed="13.89" length="5.15" shape="302.35,318.64 301.92,323.77"/>
        <lane id=":3259269221_0_2" index="2" disallow="tram rail_urban rail rail_electric rail_fast ship" speed="13.89" length="5.15" shape="299.16,318.39 298.73,323.48"/>
    </edge>
    <edge id=":3259269221_3" function="internal">
        <lane id=":3259269221_3_0" index="0" disallow="tram rail_urban rail rail_electric rail_fast ship" speed="13.89" length="5.04" shape="292.36,322.90 292.77,317.90"/>
        <lane id=":3259269221_3_1" index="1" disallow="tram rail_urban rail rail_electric rail_fast ship" speed="13.89" length="5.04" shape="295.54,323.19 295.97,318.15"/>
    </edge>
    <edge id=":382956923_0" function="internal">
        <lane id=":382956923_0_0" index="0" disallow="tram rail_urban rail rail_electric rail_fast ship" speed="13.89" length="5.09" shape="240.14,283.24 239.88,281.75 239.72,280.72 239.62,279.70 239.58,278.19"/>
    </edge>
    <edge id=":382956943_0" function="internal">
        <lane id=":382956943_0_0" index="0" disallow="tram rail_urban rail rail_electric rail_fast ship" speed="13.89" length="0.88" shape="196.84,308.35 196.64,308.51 196.51,308.64 196.42,308.79 196.32,309.03"/>
    </edge>
    <edge id=":382956946_0" function="internal">
        <lane id=":382956946_0_0" index="0" disallow="tram rail_urban rail rail_electric rail_fast ship" speed="5.56" length="7.15" shape="144.65,451.22 143.27,451.38 142.31,452.35 141.77,454.11 141.64,456.66"/>
    </edge>
    <edge id=":382956946_1" function="internal">
        <lane id=":382956946_1_0" index="0" disallow="tram rail_urban rail rail_electric rail_fast ship" speed="11.11" length="9.83" shape="144.65,451.22 141.89,450.34 140.08,449.14 138.28,448.24 135.53,448.25"/>
    </edge>
    <edge id=":382956946_2" function="internal">
        <lane id=":382956946_2_0" index="0" disallow="tram rail_urban rail rail_electric rail_fast ship" speed="3.79" length="1.46" shape="144.65,451.22 144.14,449.85"/>
    </edge>
    <edge id=":382956946_6" function="internal">
        <lane id=":382956946_6_0" index="0" disallow="tram rail_urban rail rail_electric rail_fast ship" speed="3.79" length="3.72" shape="144.14,449.85 144.09,449.72 144.25,448.74 145.13,448.28 146.73,448.34"/>
    </edge>
    <edge id=":382956946_3" function="internal">
        <lane id=":382956946_3_0" index="0" disallow="tram rail_urban rail rail_electric rail_fast ship" speed="6.13" length="9.25" shape="141.97,442.29 141.51,444.53 142.15,446.28 143.89,447.55 146.73,448.34"/>
    </edge>
    <edge id=":382956946_4" function="internal">
        <lane id=":382956946_4_0" index="0" disallow="tram rail_urban rail rail_electric rail_fast ship" speed="13.89" length="14.50" shape="141.97,442.29 141.10,445.79 141.04,449.34 141.37,452.96 141.64,456.66"/>
    </edge>
    <edge id=":382956946_5" function="internal">
        <lane id=":382956946_5_0" index="0" disallow="tram rail_urban rail rail_electric rail_fast ship" speed="8.53" length="5.46" shape="141.97,442.29 140.78,444.59 139.31,446.35 138.84,446.68"/>
    </edge>
    <edge id=":382956946_7" function="internal">
        <lane id=":382956946_7_0" index="0" disallow="tram rail_urban rail rail_electric rail_fast ship" speed="8.53" length="3.70" shape="138.84,446.68 137.56,447.57 135.53,448.25"/>
    </edge>
    <edge id=":4546573364_0" function="internal">
        <lane id=":4546573364_0_0" index="0" disallow="tram rail_urban rail rail_electric rail_fast ship" speed="11.11" length="0.27" shape="75.40,1033.32 75.28,1033.55"/>
        <lane id=":4546573364_0_1" index="1" disallow="tram rail_urban rail rail_electric rail_fast ship" speed="11.11" length="0.27" shape="72.57,1031.83 72.44,1032.08"/>
    </edge>
    <edge id=":4546573364_2" function="internal">
        <lane id=":4546573364_2_0" index="0" disallow="tram rail_urban rail rail_electric rail_fast ship" speed="11.11" length="0.32" shape="66.76,1029.13 66.91,1028.84"/>
        <lane id=":4546573364_2_1" index="1" disallow="tram rail_urban rail rail_electric rail_fast ship" speed="11.11" length="0.32" shape="69.60,1030.61 69.74,1030.33"/>
    </edge>
    <edge id=":4546573372_0" function="internal">
        <lane id=":4546573372_0_0" index="0" disallow="tram rail_urban rail rail_electric rail_fast ship" speed="11.11" length="0.35" shape="188.95,707.46 188.87,707.86"/>
        <lane id=":4546573372_0_1" index="1" disallow="tram rail_urban rail rail_electric rail_fast ship" speed="11.11" length="0.35" shape="185.80,706.88 185.75,707.17"/>
    </edge>
    <edge id=":4546573372_2" function="internal">
        <lane id=":4546573372_2_0" index="0" disallow="tram rail_urban rail rail_electric rail_fast ship" speed="11.11" length="0.12" shape="179.50,705.78 179.51,705.71"/>
        <lane id=":4546573372_2_1" index="1" disallow="tram rail_urban rail rail_electric rail_fast ship" speed="11.11" length="0.12" shape="182.62,706.47 182.66,706.29"/>
    </edge>
    <edge id=":4546573374_0" function="internal">
        <lane id=":4546573374_0_0" index="0" disallow="tram rail_urban rail rail_electric rail_fast ship" speed="11.11" length="0.40" shape="191.81,690.70 191.74,691.16"/>
        <lane id=":4546573374_0_1" index="1" disallow="tram rail_urban rail rail_electric rail_fast ship" speed="11.11" length="0.40" shape="188.63,690.33 188.58,690.65"/>
    </edge>
    <edge id=":4546573374_2" function="internal">
        <lane id=":4546573374_2_0" index="0" disallow="tram rail_urban rail rail_electric rail_fast ship" speed="11.11" length="0.11" shape="182.27,689.64 182.27,689.59"/>
        <lane id=":4546573374_2_1" index="1" disallow="tram rail_urban rail rail_electric rail_fast ship" speed="11.11" length="0.11" shape="185.43,690.14 185.45,689.96"/>
    </edge>
    <edge id=":4546573379_0" function="internal">
        <lane id=":4546573379_0_0" index="0" disallow="tram rail_urban rail rail_electric rail_fast ship" speed="11.11" length="13.23" shape="212.49,453.12 211.28,466.21"/>
        <lane id=":4546573379_0_1" index="1" disallow="tram rail_urban rail rail_electric rail_fast ship" speed="11.11" length="13.23" shape="209.31,452.74 208.08,466.00"/>
    </edge>
    <edge id=":4546573379_2" function="internal">
        <lane id=":4546573379_2_0" index="0" disallow="tram rail_urban rail rail_electric rail_fast ship" speed="8.41" length="3.49" shape="209.31,452.74 208.28,456.08"/>
    </edge>
    <edge id=":4546573379_3" function="internal">
        <lane id=":4546573379_3_0" index="0" disallow="tram rail_urban rail rail_electric rail_fast ship" speed="3.65" length="1.44" shape="209.31,452.74 208.38,453.83"/>
    </edge>
    <edge id=":4546573379_11" function="internal">
        <lane id=":4546573379_11_0" index="0" disallow="tram rail_urban rail rail_electric rail_fast ship" speed="8.41" length="12.24" shape="208.28,456.08 208.19,456.37 205.85,458.79 202.28,460.00 197.48,459.99"/>
    </edge>
    <edge id=":4546573379_12" function="internal">
        <lane id=":4546573379_12_0" index="0" disallow="tram rail_urban rail rail_electric rail_fast ship" speed="3.65" length="3.23" shape="208.38,453.83 207.53,454.14 206.79,453.64 206.14,452.36"/>
    </edge>
    <edge id=":4546573379_4" function="internal">
        <lane id=":4546573379_4_0" index="0" disallow="tram rail_urban rail rail_electric rail_fast ship" speed="6.18" length="7.99" shape="197.85,456.81 199.84,456.70 201.36,455.86 202.40,454.28 202.96,451.97"/>
    </edge>
    <edge id=":4546573379_5" function="internal">
        <lane id=":4546573379_5_0" index="0" disallow="tram rail_urban rail rail_electric rail_fast ship" speed="8.48" length="15.43" shape="197.85,456.81 202.52,457.84 205.78,459.72 207.63,462.44 208.08,466.00"/>
    </edge>
    <edge id=":4546573379_6" function="internal">
        <lane id=":4546573379_6_0" index="0" disallow="tram rail_urban rail rail_electric rail_fast ship" speed="3.65" length="1.44" shape="197.85,456.81 198.95,457.74"/>
    </edge>
    <edge id=":4546573379_13" function="internal">
        <lane id=":4546573379_13_0" index="0" disallow="tram rail_urban rail rail_electric rail_fast ship" speed="3.65" length="3.23" shape="198.95,457.74 199.26,458.58 198.77,459.33 197.48,459.99"/>
    </edge>
    <edge id=":4546573379_7" function="internal">
        <lane id=":4546573379_7_0" index="0" disallow="tram rail_urban rail rail_electric rail_fast ship" speed="6.24" length="7.91" shape="201.70,465.60 201.55,463.34 200.80,461.65 199.45,460.53 197.48,459.99"/>
    </edge>
    <edge id=":4546573379_8" function="internal">
        <lane id=":4546573379_8_0" index="0" disallow="tram rail_urban rail rail_electric rail_fast ship" speed="11.11" length="13.60" shape="201.70,465.60 202.96,451.97"/>
        <lane id=":4546573379_8_1" index="1" disallow="tram rail_urban rail rail_electric rail_fast ship" speed="11.11" length="13.60" shape="204.89,465.80 206.14,452.36"/>
    </edge>
    <edge id=":4546573379_10" function="internal">
        <lane id=":4546573379_10_0" index="0" disallow="tram rail_urban rail rail_electric rail_fast ship" speed="3.65" length="1.44" shape="204.89,465.80 205.76,464.66"/>
    </edge>
    <edge id=":4546573379_14" function="internal">
        <lane id=":4546573379_14_0" index="0" disallow="tram rail_urban rail rail_electric rail_fast ship" speed="3.65" length="3.23" shape="205.76,464.66 206.59,464.31 207.36,464.76 208.08,466.00"/>
    </edge>
    <edge id=":4546573380_0" function="internal">
        <lane id=":4546573380_0_0" index="0" disallow="tram rail_urban rail rail_electric rail_fast ship" speed="11.11" length="5.11" shape="213.30,448.04 213.01,449.48 212.83,450.48 212.69,451.48 212.51,452.94"/>
        <lane id=":4546573380_0_1" index="1" disallow="tram rail_urban rail rail_electric rail_fast ship" speed="11.11" length="5.11" shape="210.17,447.38 209.86,448.91 209.67,449.96 209.52,451.01 209.34,452.56"/>
    </edge>
    <edge id=":4546573380_2" function="internal">
        <lane id=":4546573380_2_0" index="0" disallow="tram rail_urban rail rail_electric rail_fast ship" speed="11.11" length="5.67" shape="202.98,451.79 203.19,450.08 203.35,448.91 203.56,447.75 203.91,446.06"/>
        <lane id=":4546573380_2_1" index="1" disallow="tram rail_urban rail rail_electric rail_fast ship" speed="11.11" length="5.67" shape="206.16,452.18 206.36,450.55 206.51,449.43 206.71,448.33 207.04,446.72"/>
    </edge>
    <edge id=":4546573382_0" function="internal">
        <lane id=":4546573382_0_0" index="0" disallow="tram rail_urban rail rail_electric rail_fast ship" speed="11.11" length="5.17" shape="211.26,466.41 210.93,471.56"/>
        <lane id=":4546573382_0_1" index="1" disallow="tram rail_urban rail rail_electric rail_fast ship" speed="11.11" length="5.17" shape="208.07,466.20 207.74,471.36"/>
    </edge>
    <edge id=":4546573382_2" function="internal">
        <lane id=":4546573382_2_0" index="0" disallow="tram rail_urban rail rail_electric rail_fast ship" speed="11.11" length="5.15" shape="201.35,470.94 201.68,465.80"/>
        <lane id=":4546573382_2_1" index="1" disallow="tram rail_urban rail rail_electric rail_fast ship" speed="11.11" length="5.15" shape="204.55,471.15 204.88,466.00"/>
    </edge>
    <edge id=":5135263989_0" function="internal">
        <lane id=":5135263989_0_0" index="0" disallow="tram rail_urban rail rail_electric rail_fast ship" speed="13.89" length="4.18" shape="197.29,459.96 193.15,459.36"/>
    </edge>
    <edge id=":5135263989_1" function="internal">
        <lane id=":5135263989_1_0" index="0" disallow="tram rail_urban rail rail_electric rail_fast ship" speed="13.89" length="4.01" shape="193.68,456.20 197.65,456.79"/>
    </edge>
    <edge id=":5202080282_0" function="internal">
        <lane id=":5202080282_0_0" index="0" disallow="tram rail_urban rail rail_electric rail_fast ship" speed="13.89" length="3.77" shape="148.56,451.90 144.85,451.25"/>
    </edge>
    <edge id=":5202080282_1" function="internal">
        <lane id=":5202080282_1_0" index="0" disallow="tram rail_urban rail rail_electric rail_fast ship" speed="13.89" length="2.19" shape="146.93,448.38 149.09,448.74"/>
    </edge>
    <edge id=":5535539087_0" function="internal">
        <lane id=":5535539087_0_0" index="0" allow="pedestrian delivery bicycle" speed="3.65" length="4.67" shape="61.07,428.53 61.37,427.12 61.97,426.46 62.86,426.53 64.04,427.35"/>
    </edge>
    <edge id=":5535539095_0" function="internal">
        <lane id=":5535539095_0_0" index="0" disallow="tram rail_urban rail rail_electric rail_fast ship" speed="13.89" length="9.47" shape="179.00,351.51 175.42,360.27"/>
    </edge>
    <edge id=":5535539095_1" function="internal">
        <lane id=":5535539095_1_0" index="0" allow="pedestrian delivery bicycle" speed="7.24" length="7.91" shape="179.00,351.51 177.90,353.65 176.60,355.20 175.11,356.14 173.42,356.47"/>
    </edge>
    <edge id=":5535539095_2" function="internal">
        <lane id=":5535539095_2_0" index="0" allow="pedestrian delivery bicycle" speed="5.67" length="8.63" shape="174.19,353.26 175.81,353.68 176.56,354.99 176.43,357.18 175.42,360.27"/>
    </edge>
    <edge id=":5535539095_3" function="internal">