<?xml version="1.0" encoding="UTF-8"?>

<!-- generated on 2024-02-01 22:39:15 by Eclipse SUMO netedit Version 1.19.0
-->

<routes xmlns:xsi="http://www.w3.org/2001/XMLSchema-instance" xsi:noNamespaceSchemaLocation="http://sumo.dlr.de/xsd/routes_file.xsd">
    <!-- VTypes -->
    <vType id="my_car" length="5.00" maxSpeed="6.89" accel="2.6" decel="4.5"/>
    <!-- Vehicles, persons and containers (sorted by depart) -->
    <trip id="t_0" depart="0.00" from="264459842#9.41" to="1019987802#1"/>
    <trip id="t_1" depart="0.00" departSpeed="5.00" from="264459842#10" to="1019987802#1" type="my_car"/>
</routes>
