<?xml version="1.0" encoding="UTF-8"?>

<!-- generated on 2024-02-01 22:39:15 by Eclipse SUMO netedit Version 1.19.0
<configuration xmlns:xsi="http://www.w3.org/2001/XMLSchema-instance" xsi:noNamespaceSchemaLocation="http://sumo.dlr.de/xsd/neteditConfiguration.xsd">

    <input>
        <sumocfg-file value="/Users/iwakiryo2/Documents/01Research/01Source/BeamTrackingAlgorithm/datasource/shinobazu.sumocfg"/>
        <additional-files value=""/>
        <route-files value="/Users/iwakiryo2/Documents/01Research/01Source/BeamTrackingAlgorithm/datasource/shinobazu.rou.xml"/>
        <sumo-net-file value="/Users/iwakiryo2/Documents/01Research/01Source/BeamTrackingAlgorithm/datasource/shinobazu.net.xml"/>
    </input>

    <output>
        <output-file value="/Users/iwakiryo2/Documents/01Research/01Source/BeamTrackingAlgorithm/datasource/shinobazu.net.xml"/>
    </output>

    <processing>
        <geometry.min-radius.fix.railways value="false"/>
        <geometry.max-grade.fix value="false"/>
        <offset.disable-normalization value="true"/>
        <lefthand value="0"/>
    </processing>

    <junctions>
        <no-turnarounds value="true"/>
        <junctions.corner-detail value="5"/>
        <junctions.limit-turn-speed value="5.50"/>
        <rectangular-lane-cut value="0"/>
    </junctions>

    <pedestrian>
        <walkingareas value="0"/>
    </pedestrian>

</configuration>
-->

<net version="1.16" junctionCornerDetail="5" limitTurnSpeed="5.50" xmlns:xsi="http://www.w3.org/2001/XMLSchema-instance" xsi:noNamespaceSchemaLocation="http://sumo.dlr.de/xsd/net_file.xsd">

    <location netOffset="-388419.50,-3952066.33" convBoundary="0.00,0.00,618.11,1162.63" origBoundary="139.766400,35.706260,139.773336,35.716706" projParameter="+proj=utm +zone=54 +ellps=WGS84 +datum=WGS84 +units=m +no_defs"/>

    <type id="highway.footway" priority="1" numLanes="1" speed="2.78" allow="pedestrian" oneway="1" width="2.00"/>
    <type id="highway.residential" priority="3" numLanes="1" speed="13.89" disallow="tram rail_urban rail rail_electric rail_fast ship" oneway="0"/>
    <type id="highway.secondary" priority="11" numLanes="1" speed="27.78" disallow="tram rail_urban rail rail_electric rail_fast ship" oneway="0"/>
    <type id="highway.service" priority="1" numLanes="1" speed="5.56" allow="pedestrian delivery bicycle" oneway="0"/>
    <type id="highway.unclassified" priority="4" numLanes="1" speed="13.89" disallow="tram rail_urban rail rail_electric rail_fast ship" oneway="0"/>
    <type id="railway.subway" priority="18" numLanes="1" speed="27.78" allow="rail_urban" oneway="1"/>

    <edge id=":1034904147_0" function="internal">
        <lane id=":1034904147_0_0" index="0" disallow="tram rail_urban rail rail_electric rail_fast ship" speed="3.65" length="4.67" shape="302.70,221.99 303.57,220.84 304.39,220.48 305.17,220.93 305.90,222.17"/>
    </edge>
    <edge id=":1035125885_0" function="internal">
        <lane id=":1035125885_0_0" index="0" disallow="tram rail_urban rail rail_electric rail_fast ship" speed="10.53" length="5.48" shape="251.45,333.96 249.87,334.34 248.79,334.70 247.85,335.29 246.67,336.38"/>
    </edge>
    <edge id=":1035125885_1" function="internal">
        <lane id=":1035125885_1_0" index="0" disallow="tram rail_urban rail rail_electric rail_fast ship" speed="4.95" length="5.11" shape="251.45,333.96 250.04,334.10 248.96,333.74 248.21,332.89 247.79,331.54"/>
    </edge>
    <edge id=":1065718064_0" function="internal">
        <lane id=":1065718064_0_0" index="0" disallow="tram rail_urban rail rail_electric rail_fast ship" speed="11.11" length="0.35" shape="190.27,700.36 190.20,700.74"/>
        <lane id=":1065718064_0_1" index="1" disallow="tram rail_urban rail rail_electric rail_fast ship" speed="11.11" length="0.35" shape="187.11,699.85 187.06,700.16"/>
    </edge>
    <edge id=":1065718064_2" function="internal">
        <lane id=":1065718064_2_0" index="0" disallow="tram rail_urban rail rail_electric rail_fast ship" speed="11.11" length="0.19" shape="180.77,698.98 180.79,698.84"/>
        <lane id=":1065718064_2_1" index="1" disallow="tram rail_urban rail rail_electric rail_fast ship" speed="11.11" length="0.19" shape="183.91,699.57 183.95,699.34"/>
    </edge>
    <edge id=":1067372451_0" function="internal">
        <lane id=":1067372451_0_0" index="0" disallow="tram rail_urban rail rail_electric rail_fast ship" speed="3.65" length="4.67" shape="65.83,1044.81 64.57,1045.50 63.67,1045.49 63.15,1044.77 62.99,1043.33"/>
    </edge>
    <edge id=":1067372470_0" function="internal">
        <lane id=":1067372470_0_0" index="0" disallow="tram rail_urban rail rail_electric rail_fast ship" speed="11.11" length="1.20" shape="130.59,926.36 130.45,926.75 130.34,927.02 130.22,927.28 130.03,927.65"/>
        <lane id=":1067372470_0_1" index="1" disallow="tram rail_urban rail rail_electric rail_fast ship" speed="11.11" length="1.20" shape="127.58,925.27 127.48,925.55 127.40,925.74 127.32,925.93 127.18,926.19"/>
    </edge>
    <edge id=":1067372470_2" function="internal">
        <lane id=":1067372470_2_0" index="0" disallow="tram rail_urban rail rail_electric rail_fast ship" speed="11.11" length="0.40" shape="121.48,923.29 121.51,923.24 121.53,923.20 121.54,923.16 121.56,923.10"/>
        <lane id=":1067372470_2_1" index="1" disallow="tram rail_urban rail rail_electric rail_fast ship" speed="11.11" length="0.40" shape="124.33,924.74 124.41,924.58 124.46,924.47 124.51,924.36 124.57,924.19"/>
    </edge>
    <edge id=":1067418242_0" function="internal">
        <lane id=":1067418242_0_0" index="0" disallow="tram rail_urban rail rail_electric rail_fast ship" speed="11.11" length="10.08" shape="244.88,382.19 242.78,384.24 241.37,385.67 240.04,387.18 238.17,389.44"/>
        <lane id=":1067418242_0_1" index="1" disallow="tram rail_urban rail rail_electric rail_fast ship" speed="11.11" length="10.08" shape="242.66,379.90 240.47,382.02 239.01,383.51 237.63,385.07 235.69,387.42"/>
    </edge>
    <edge id=":1067418242_2" function="internal">
        <lane id=":1067418242_2_0" index="0" disallow="tram rail_urban rail rail_electric rail_fast ship" speed="3.65" length="1.44" shape="242.66,379.90 241.24,380.16"/>
    </edge>
    <edge id=":1067418242_8" function="internal">
        <lane id=":1067418242_8_0" index="0" disallow="tram rail_urban rail rail_electric rail_fast ship" speed="3.65" length="3.23" shape="241.24,380.16 240.39,379.86 240.12,379.01 240.43,377.60"/>
    </edge>
    <edge id=":1067418242_3" function="internal">
        <lane id=":1067418242_3_0" index="0" disallow="tram rail_urban rail rail_electric rail_fast ship" speed="6.03" length="7.66" shape="231.52,376.44 232.93,377.41 234.51,377.54 236.27,376.84 238.20,375.30"/>
    </edge>
    <edge id=":1067418242_4" function="internal">
        <lane id=":1067418242_4_0" index="0" disallow="tram rail_urban rail rail_electric rail_fast ship" speed="7.96" length="12.68" shape="231.52,376.44 234.43,379.91 236.10,382.89 236.52,385.40 235.69,387.42"/>
    </edge>
    <edge id=":1067418242_5" function="internal">
        <lane id=":1067418242_5_0" index="0" disallow="tram rail_urban rail rail_electric rail_fast ship" speed="11.11" length="10.83" shape="230.73,383.38 232.80,380.86 234.28,379.18 235.85,377.58 238.20,375.30"/>
        <lane id=":1067418242_5_1" index="1" disallow="tram rail_urban rail rail_electric rail_fast ship" speed="11.11" length="10.83" shape="233.21,385.40 235.22,382.97 236.65,381.34 238.16,379.80 240.43,377.60"/>
    </edge>
    <edge id=":1067418242_7" function="internal">
        <lane id=":1067418242_7_0" index="0" disallow="tram rail_urban rail rail_electric rail_fast ship" speed="3.65" length="1.44" shape="233.21,385.40 234.59,384.98"/>
    </edge>
    <edge id=":1067418242_9" function="internal">
        <lane id=":1067418242_9_0" index="0" disallow="tram rail_urban rail rail_electric rail_fast ship" speed="3.65" length="3.23" shape="234.59,384.98 235.46,385.17 235.83,385.99 235.69,387.42"/>
    </edge>
    <edge id=":1067418261_0" function="internal">
        <lane id=":1067418261_0_0" index="0" disallow="tram rail_urban rail rail_electric rail_fast ship" speed="13.89" length="3.88" shape="229.45,372.96 229.92,374.02 230.24,374.75 230.64,375.43 231.38,376.29"/>
    </edge>
    <edge id=":1067419103_0" function="internal">
        <lane id=":1067419103_0_0" index="0" disallow="tram rail_urban rail rail_electric rail_fast ship" speed="11.11" length="0.22" shape="436.24,371.48 436.06,371.44"/>
        <lane id=":1067419103_0_1" index="1" disallow="tram rail_urban rail rail_electric rail_fast ship" speed="11.11" length="0.22" shape="436.98,368.37 436.74,368.31"/>
    </edge>
    <edge id=":1067419103_2" function="internal">
        <lane id=":1067419103_2_0" index="0" disallow="tram rail_urban rail rail_electric rail_fast ship" speed="11.11" length="0.34" shape="438.11,362.06 438.47,362.14"/>
        <lane id=":1067419103_2_1" index="1" disallow="tram rail_urban rail rail_electric rail_fast ship" speed="11.11" length="0.34" shape="437.42,365.19 437.73,365.26"/>
    </edge>
    <edge id=":1067419209_0" function="internal">
        <lane id=":1067419209_0_0" index="0" disallow="tram rail_urban rail rail_electric rail_fast ship" speed="13.89" length="5.03" shape="228.89,360.66 228.37,362.02 228.29,363.03 228.36,364.09 228.31,365.59"/>
    </edge>
    <edge id=":288380018_0" function="internal">
        <lane id=":288380018_0_0" index="0" disallow="tram rail_urban rail rail_electric rail_fast ship" speed="13.89" length="0.30" shape="311.40,238.40 311.38,238.70"/>
        <lane id=":288380018_0_1" index="1" disallow="tram rail_urban rail rail_electric rail_fast ship" speed="13.89" length="0.30" shape="308.20,238.22 308.18,238.52"/>
        <lane id=":288380018_0_2" index="2" disallow="tram rail_urban rail rail_electric rail_fast ship" speed="13.89" length="0.30" shape="305.01,238.04 304.99,238.34"/>
    </edge>
    <edge id=":288380018_3" function="internal">
        <lane id=":288380018_3_0" index="0" disallow="tram rail_urban rail rail_electric rail_fast ship" speed="13.89" length="0.30" shape="298.60,237.98 298.62,237.68"/>
        <lane id=":288380018_3_1" index="1" disallow="tram rail_urban rail rail_electric rail_fast ship" speed="13.89" length="0.30" shape="301.79,238.16 301.81,237.86"/>
    </edge>
    <edge id=":288380019_0" function="internal">
        <lane id=":288380019_0_0" index="0" disallow="tram rail_urban rail rail_electric rail_fast ship" speed="11.11" length="22.13" shape="308.26,344.42 301.99,343.67 297.20,343.81 292.65,345.18 287.10,348.11"/>
    </edge>
    <edge id=":288380019_1" function="internal">
        <lane id=":288380019_1_0" index="0" disallow="tram rail_urban rail rail_electric rail_fast ship" speed="12.50" length="28.67" shape="308.26,344.42 300.62,342.31 293.11,339.00 286.56,335.69 281.79,333.62"/>
    </edge>
    <edge id=":288380019_2" function="internal">
        <lane id=":288380019_2_0" index="0" disallow="tram rail_urban rail rail_electric rail_fast ship" speed="9.93" length="21.48" shape="308.72,341.25 302.39,339.60 298.02,336.81 295.60,332.86 295.13,327.77"/>
    </edge>
    <edge id=":288380019_3" function="internal">
        <lane id=":288380019_3_0" index="0" disallow="tram rail_urban rail rail_electric rail_fast ship" speed="3.65" length="2.34" shape="308.72,341.25 307.65,340.29 307.37,339.44"/>
    </edge>
    <edge id=":288380019_14" function="internal">
        <lane id=":288380019_14_0" index="0" disallow="tram rail_urban rail rail_electric rail_fast ship" speed="3.65" length="2.34" shape="307.37,339.44 307.88,338.70 309.19,338.09"/>
    </edge>
    <edge id=":288380019_4" function="internal">
        <lane id=":288380019_4_0" index="0" disallow="tram rail_urban rail rail_electric rail_fast ship" speed="6.64" length="9.03" shape="304.69,328.63 304.82,331.08 305.69,332.95 307.30,334.23 309.65,334.92"/>
    </edge>
    <edge id=":288380019_5" function="internal">
        <lane id=":288380019_5_0" index="0" disallow="tram rail_urban rail rail_electric rail_fast ship" speed="12.50" length="27.10" shape="304.69,328.63 303.27,333.45 299.86,338.31 294.47,343.19 287.10,348.11"/>
        <lane id=":288380019_5_1" index="1" disallow="tram rail_urban rail rail_electric rail_fast ship" speed="12.50" length="23.99" shape="301.51,328.34 300.24,332.40 297.16,336.57 292.27,340.87 285.56,345.30"/>
    </edge>
    <edge id=":288380019_7" function="internal">
        <lane id=":288380019_7_0" index="0" disallow="tram rail_urban rail rail_electric rail_fast ship" speed="8.89" length="20.43" shape="298.32,328.05 296.94,332.21 293.73,334.52 288.68,334.99 281.79,333.62"/>
    </edge>
    <edge id=":288380019_8" function="internal">
        <lane id=":288380019_8_0" index="0" disallow="tram rail_urban rail rail_electric rail_fast ship" speed="3.65" length="4.67" shape="298.32,328.05 297.41,329.18 296.58,329.50 295.82,329.03 295.13,327.77"/>
    </edge>
    <edge id=":288380019_9" function="internal">
        <lane id=":288380019_9_0" index="0" disallow="tram rail_urban rail rail_electric rail_fast ship" speed="5.48" length="9.62" shape="282.48,339.68 284.93,337.83 285.63,336.21 284.59,334.80 281.79,333.62"/>
    </edge>
    <edge id=":288380019_10" function="internal">
        <lane id=":288380019_10_0" index="0" disallow="tram rail_urban rail rail_electric rail_fast ship" speed="11.52" length="16.02" shape="282.48,339.68 286.39,336.97 289.26,334.03 291.12,330.87 291.95,327.48"/>
    </edge>
    <edge id=":288380019_11" function="internal">
        <lane id=":288380019_11_0" index="0" disallow="tram rail_urban rail rail_electric rail_fast ship" speed="11.11" length="27.13" shape="282.48,339.68 288.97,336.59 295.59,334.85 302.45,334.34 309.65,334.92"/>
        <lane id=":288380019_11_1" index="1" disallow="tram rail_urban rail rail_electric rail_fast ship" speed="11.11" length="27.13" shape="284.02,342.49 290.20,339.46 296.13,337.84 302.29,337.45 309.19,338.09"/>
    </edge>
    <edge id=":288380019_13" function="internal">
        <lane id=":288380019_13_0" index="0" disallow="tram rail_urban rail rail_electric rail_fast ship" speed="3.65" length="2.34" shape="284.02,342.49 285.46,342.62 286.19,343.13"/>
    </edge>
    <edge id=":288380019_15" function="internal">
        <lane id=":288380019_15_0" index="0" disallow="tram rail_urban rail rail_electric rail_fast ship" speed="3.65" length="2.34" shape="286.19,343.13 286.23,344.02 285.56,345.30"/>
    </edge>
    <edge id=":3259269174_0" function="internal">
        <lane id=":3259269174_0_0" index="0" disallow="tram rail_urban rail rail_electric rail_fast ship" speed="13.89" length="6.92" shape="278.88,332.76 276.91,332.21 275.53,331.92 274.13,331.79 272.07,331.69"/>
    </edge>
    <edge id=":3259269190_0" function="internal">
        <lane id=":3259269190_0_0" index="0" disallow="tram rail_urban rail rail_electric rail_fast ship" speed="11.11" length="0.33" shape="431.95,370.54 431.60,370.46"/>
        <lane id=":3259269190_0_1" index="1" disallow="tram rail_urban rail rail_electric rail_fast ship" speed="11.11" length="0.33" shape="432.63,367.41 432.33,367.35"/>
    </edge>
    <edge id=":3259269190_2" function="internal">
        <lane id=":3259269190_2_0" index="0" disallow="tram rail_urban rail rail_electric rail_fast ship" speed="11.11" length="0.25" shape="433.78,361.11 434.00,361.16"/>
        <lane id=":3259269190_2_1" index="1" disallow="tram rail_urban rail rail_electric rail_fast ship" speed="11.11" length="0.25" shape="433.05,364.23 433.31,364.29"/>
    </edge>
    <edge id=":3259269201_0" function="internal">
        <lane id=":3259269201_0_0" index="0" disallow="tram rail_urban rail rail_electric rail_fast ship" speed="11.11" length="5.48" shape="315.88,345.67 310.55,344.76"/>
        <lane id=":3259269201_0_1" index="1" disallow="tram rail_urban rail rail_electric rail_fast ship" speed="11.11" length="5.48" shape="316.48,342.53 311.02,341.59"/>
    </edge>
    <edge id=":3259269201_2" function="internal">
        <lane id=":3259269201_2_0" index="0" disallow="tram rail_urban rail rail_electric rail_fast ship" speed="11.11" length="5.75" shape="311.95,335.26 317.69,336.24"/>
        <lane id=":3259269201_2_1" index="1" disallow="tram rail_urban rail rail_electric rail_fast ship" speed="11.11" length="5.75" shape="311.48,338.42 317.08,339.38"/>
    </edge>
    <edge id=":3259269210_0" function="internal">
        <lane id=":3259269210_0_0" index="0" disallow="tram rail_urban rail rail_electric rail_fast ship" speed="11.11" length="7.68" shape="286.40,348.52 284.48,349.65 283.17,350.44 281.92,351.31 280.13,352.63"/>
        <lane id=":3259269210_0_1" index="1" disallow="tram rail_urban rail rail_electric rail_fast ship" speed="11.11" length="7.68" shape="284.77,345.76 282.76,346.95 281.39,347.78 280.08,348.69 278.20,350.08"/>
    </edge>
    <edge id=":3259269210_2" function="internal">
        <lane id=":3259269210_2_0" index="0" disallow="tram rail_urban rail rail_electric rail_fast ship" speed="11.11" length="8.42" shape="274.34,344.97 276.39,343.45 277.83,342.46 279.32,341.54 281.52,340.25"/>
        <lane id=":3259269210_2_1" index="1" disallow="tram rail_urban rail rail_electric rail_fast ship" speed="11.11" length="8.42" shape="276.27,347.53 278.23,346.07 279.61,345.12 281.04,344.24 283.15,343.01"/>
    </edge>
    <edge id=":3259269221_0" function="internal">
        <lane id=":3259269221_0_0" index="0" disallow="tram rail_urban rail rail_electric rail_fast ship" speed="13.89" length="5.15" shape="305.54,318.88 305.11,324.05"/>
        <lane id=":3259269221_0_1" index="1" disallow="tram rail_urban rail rail_electric rail_fast ship" speed="13.89" length="5.15" shape="302.35,318.64 301.92,323.77"/>
        <lane id=":3259269221_0_2" index="2" disallow="tram rail_urban rail rail_electric rail_fast ship" speed="13.89" length="5.15" shape="299.16,318.39 298.73,323.48"/>
    </edge>
    <edge id=":3259269221_3" function="internal">
        <lane id=":3259269221_3_0" index="0" disallow="tram rail_urban rail rail_electric rail_fast ship" speed="13.89" length="5.04" shape="292.36,322.91 292.78,317.90"/>
        <lane id=":3259269221_3_1" index="1" disallow="tram rail_urban rail rail_electric rail_fast ship" speed="13.89" length="5.04" shape="295.54,323.19 295.97,318.15"/>
    </edge>
    <edge id=":382956923_0" function="internal">
        <lane id=":382956923_0_0" index="0" disallow="tram rail_urban rail rail_electric rail_fast ship" speed="13.89" length="5.09" shape="240.13,283.24 239.88,281.75 239.71,280.73 239.62,279.70 239.58,278.19"/>
    </edge>
    <edge id=":382956943_0" function="internal">
        <lane id=":382956943_0_0" index="0" disallow="tram rail_urban rail rail_electric rail_fast ship" speed="13.89" length="0.88" shape="196.85,308.34 196.64,308.50 196.52,308.63 196.42,308.78 196.32,309.02"/>
    </edge>
    <edge id=":382956946_0" function="internal">
        <lane id=":382956946_0_0" index="0" disallow="tram rail_urban rail rail_electric rail_fast ship" speed="5.56" length="7.14" shape="144.64,451.21 143.27,451.38 142.31,452.34 141.77,454.11 141.64,456.66"/>
    </edge>
    <edge id=":382956946_1" function="internal">
        <lane id=":382956946_1_0" index="0" disallow="tram rail_urban rail rail_electric rail_fast ship" speed="11.11" length="9.82" shape="144.64,451.21 141.88,450.33 140.07,449.14 138.27,448.24 135.53,448.25"/>
    </edge>
    <edge id=":382956946_2" function="internal">
        <lane id=":382956946_2_0" index="0" disallow="tram rail_urban rail rail_electric rail_fast ship" speed="3.79" length="1.45" shape="144.64,451.21 144.14,449.85"/>
    </edge>
    <edge id=":382956946_6" function="internal">
        <lane id=":382956946_6_0" index="0" disallow="tram rail_urban rail rail_electric rail_fast ship" speed="3.79" length="3.72" shape="144.14,449.85 144.09,449.71 144.26,448.74 145.13,448.28 146.73,448.35"/>
    </edge>
    <edge id=":382956946_3" function="internal">
        <lane id=":382956946_3_0" index="0" disallow="tram rail_urban rail rail_electric rail_fast ship" speed="6.13" length="9.25" shape="141.97,442.29 141.51,444.52 142.15,446.27 143.89,447.55 146.73,448.35"/>
    </edge>
    <edge id=":382956946_4" function="internal">
        <lane id=":382956946_4_0" index="0" disallow="tram rail_urban rail rail_electric rail_fast ship" speed="13.89" length="14.50" shape="141.97,442.29 141.10,445.79 141.04,449.34 141.37,452.96 141.64,456.66"/>
    </edge>
    <edge id=":382956946_5" function="internal">
        <lane id=":382956946_5_0" index="0" disallow="tram rail_urban rail rail_electric rail_fast ship" speed="8.53" length="5.46" shape="141.97,442.29 140.78,444.59 139.31,446.35 138.83,446.68"/>
    </edge>
    <edge id=":382956946_7" function="internal">
        <lane id=":382956946_7_0" index="0" disallow="tram rail_urban rail rail_electric rail_fast ship" speed="8.53" length="3.69" shape="138.83,446.68 137.56,447.57 135.53,448.25"/>
    </edge>
    <edge id=":4546573364_0" function="internal">
        <lane id=":4546573364_0_0" index="0" disallow="tram rail_urban rail rail_electric rail_fast ship" speed="11.11" length="0.27" shape="75.40,1033.32 75.28,1033.55"/>
        <lane id=":4546573364_0_1" index="1" disallow="tram rail_urban rail rail_electric rail_fast ship" speed="11.11" length="0.27" shape="72.57,1031.83 72.44,1032.08"/>
    </edge>
    <edge id=":4546573364_2" function="internal">
        <lane id=":4546573364_2_0" index="0" disallow="tram rail_urban rail rail_electric rail_fast ship" speed="11.11" length="0.32" shape="66.76,1029.13 66.92,1028.83"/>
        <lane id=":4546573364_2_1" index="1" disallow="tram rail_urban rail rail_electric rail_fast ship" speed="11.11" length="0.32" shape="69.60,1030.60 69.75,1030.33"/>
    </edge>
    <edge id=":4546573372_0" function="internal">
        <lane id=":4546573372_0_0" index="0" disallow="tram rail_urban rail rail_electric rail_fast ship" speed="11.11" length="0.35" shape="188.95,707.46 188.87,707.86"/>
        <lane id=":4546573372_0_1" index="1" disallow="tram rail_urban rail rail_electric rail_fast ship" speed="11.11" length="0.35" shape="185.80,706.87 185.75,707.16"/>
    </edge>
    <edge id=":4546573372_2" function="internal">
        <lane id=":4546573372_2_0" index="0" disallow="tram rail_urban rail rail_electric rail_fast ship" speed="11.11" length="0.13" shape="179.50,705.78 179.51,705.70"/>
        <lane id=":4546573372_2_1" index="1" disallow="tram rail_urban rail rail_electric rail_fast ship" speed="11.11" length="0.13" shape="182.62,706.47 182.66,706.29"/>
    </edge>
    <edge id=":4546573374_0" function="internal">
        <lane id=":4546573374_0_0" index="0" disallow="tram rail_urban rail rail_electric rail_fast ship" speed="11.11" length="0.40" shape="191.81,690.69 191.75,691.16"/>
        <lane id=":4546573374_0_1" index="1" disallow="tram rail_urban rail rail_electric rail_fast ship" speed="11.11" length="0.40" shape="188.63,690.33 188.59,690.65"/>
    </edge>
    <edge id=":4546573374_2" function="internal">
        <lane id=":4546573374_2_0" index="0" disallow="tram rail_urban rail rail_electric rail_fast ship" speed="11.11" length="0.11" shape="182.27,689.63 182.28,689.59"/>
        <lane id=":4546573374_2_1" index="1" disallow="tram rail_urban rail rail_electric rail_fast ship" speed="11.11" length="0.11" shape="185.43,690.14 185.46,689.96"/>
    </edge>
    <edge id=":4546573379_0" function="internal">
        <lane id=":4546573379_0_0" index="0" disallow="tram rail_urban rail rail_electric rail_fast ship" speed="11.11" length="13.23" shape="212.49,453.12 211.28,466.20"/>
        <lane id=":4546573379_0_1" index="1" disallow="tram rail_urban rail rail_electric rail_fast ship" speed="11.11" length="13.23" shape="209.32,452.74 208.08,466.00"/>
    </edge>
    <edge id=":4546573379_2" function="internal">
        <lane id=":4546573379_2_0" index="0" disallow="tram rail_urban rail rail_electric rail_fast ship" speed="8.42" length="3.49" shape="209.32,452.74 208.29,456.07"/>
    </edge>
    <edge id=":4546573379_3" function="internal">
        <lane id=":4546573379_3_0" index="0" disallow="tram rail_urban rail rail_electric rail_fast ship" speed="3.65" length="1.44" shape="209.32,452.74 208.38,453.83"/>
    </edge>
    <edge id=":4546573379_11" function="internal">
        <lane id=":4546573379_11_0" index="0" disallow="tram rail_urban rail rail_electric rail_fast ship" speed="8.42" length="12.25" shape="208.29,456.07 208.19,456.37 205.84,458.80 202.27,460.00 197.48,459.99"/>
    </edge>
    <edge id=":4546573379_12" function="internal">
        <lane id=":4546573379_12_0" index="0" disallow="tram rail_urban rail rail_electric rail_fast ship" speed="3.65" length="3.23" shape="208.38,453.83 207.54,454.13 206.79,453.64 206.14,452.35"/>
    </edge>
    <edge id=":4546573379_4" function="internal">
        <lane id=":4546573379_4_0" index="0" disallow="tram rail_urban rail rail_electric rail_fast ship" speed="6.18" length="8.00" shape="197.85,456.81 199.84,456.70 201.36,455.86 202.40,454.28 202.96,451.97"/>
    </edge>
    <edge id=":4546573379_5" function="internal">
        <lane id=":4546573379_5_0" index="0" disallow="tram rail_urban rail rail_electric rail_fast ship" speed="8.48" length="15.42" shape="197.85,456.81 202.51,457.85 205.77,459.73 207.63,462.44 208.08,466.00"/>
    </edge>
    <edge id=":4546573379_6" function="internal">
        <lane id=":4546573379_6_0" index="0" disallow="tram rail_urban rail rail_electric rail_fast ship" speed="3.65" length="1.44" shape="197.85,456.81 198.95,457.74"/>
    </edge>
    <edge id=":4546573379_13" function="internal">
        <lane id=":4546573379_13_0" index="0" disallow="tram rail_urban rail rail_electric rail_fast ship" speed="3.65" length="3.23" shape="198.95,457.74 199.26,458.58 198.77,459.33 197.48,459.99"/>
    </edge>
    <edge id=":4546573379_7" function="internal">
        <lane id=":4546573379_7_0" index="0" disallow="tram rail_urban rail rail_electric rail_fast ship" speed="6.24" length="7.91" shape="201.70,465.60 201.55,463.34 200.80,461.65 199.45,460.54 197.48,459.99"/>
    </edge>
    <edge id=":4546573379_8" function="internal">
        <lane id=":4546573379_8_0" index="0" disallow="tram rail_urban rail rail_electric rail_fast ship" speed="11.11" length="13.60" shape="201.70,465.60 202.96,451.97"/>
        <lane id=":4546573379_8_1" index="1" disallow="tram rail_urban rail rail_electric rail_fast ship" speed="11.11" length="13.60" shape="204.89,465.80 206.14,452.35"/>
    </edge>
    <edge id=":4546573379_10" function="internal">
        <lane id=":4546573379_10_0" index="0" disallow="tram rail_urban rail rail_electric rail_fast ship" speed="3.65" length="1.44" shape="204.89,465.80 205.76,464.66"/>
    </edge>
    <edge id=":4546573379_14" function="internal">
        <lane id=":4546573379_14_0" index="0" disallow="tram rail_urban rail rail_electric rail_fast ship" speed="3.65" length="3.23" shape="205.76,464.66 206.59,464.31 207.36,464.76 208.08,466.00"/>
    </edge>
    <edge id=":4546573380_0" function="internal">
        <lane id=":4546573380_0_0" index="0" disallow="tram rail_urban rail rail_electric rail_fast ship" speed="11.11" length="5.12" shape="213.31,448.04 212.51,452.96"/>
        <lane id=":4546573380_0_1" index="1" disallow="tram rail_urban rail rail_electric rail_fast ship" speed="11.11" length="5.12" shape="210.18,447.38 209.34,452.57"/>
    </edge>
    <edge id=":4546573380_2" function="internal">
        <lane id=":4546573380_2_0" index="0" disallow="tram rail_urban rail rail_electric rail_fast ship" speed="11.11" length="5.68" shape="202.98,451.80 203.91,446.06"/>
        <lane id=":4546573380_2_1" index="1" disallow="tram rail_urban rail rail_electric rail_fast ship" speed="11.11" length="5.68" shape="206.16,452.19 207.05,446.72"/>
    </edge>
    <edge id=":4546573382_0" function="internal">
        <lane id=":4546573382_0_0" index="0" disallow="tram rail_urban rail rail_electric rail_fast ship" speed="11.11" length="5.17" shape="211.27,466.40 210.94,471.57"/>
        <lane id=":4546573382_0_1" index="1" disallow="tram rail_urban rail rail_electric rail_fast ship" speed="11.11" length="5.17" shape="208.07,466.20 207.74,471.36"/>
    </edge>
    <edge id=":4546573382_2" function="internal">
        <lane id=":4546573382_2_0" index="0" disallow="tram rail_urban rail rail_electric rail_fast ship" speed="11.11" length="5.16" shape="201.36,470.94 201.68,465.80"/>
        <lane id=":4546573382_2_1" index="1" disallow="tram rail_urban rail rail_electric rail_fast ship" speed="11.11" length="5.16" shape="204.55,471.15 204.88,466.00"/>
    </edge>
    <edge id=":5135263989_0" function="internal">
        <lane id=":5135263989_0_0" index="0" disallow="tram rail_urban rail rail_electric rail_fast ship" speed="13.89" length="4.18" shape="197.29,459.97 193.15,459.36"/>
    </edge>
    <edge id=":5135263989_1" function="internal">
        <lane id=":5135263989_1_0" index="0" disallow="tram rail_urban rail rail_electric rail_fast ship" speed="13.89" length="4.01" shape="193.68,456.21 197.65,456.79"/>
    </edge>
    <edge id=":5202080282_0" function="internal">
        <lane id=":5202080282_0_0" index="0" disallow="tram rail_urban rail rail_electric rail_fast ship" speed="13.89" length="3.78" shape="148.56,451.90 144.84,451.24"/>
    </edge>
    <edge id=":5202080282_1" function="internal">
        <lane id=":5202080282_1_0" index="0" disallow="tram rail_urban rail rail_electric rail_fast ship" speed="13.89" length="2.20" shape="146.93,448.38 149.09,448.75"/>
    </edge>
    <edge id=":5535539087_0" function="internal">
        <lane id=":5535539087_0_0" index="0" allow="pedestrian delivery bicycle" speed="3.65" length="4.67" shape="61.07,428.53 61.37,427.12 61.97,426.45 62.86,426.53 64.05,427.35"/>
    </edge>
    <edge id=":5535539095_0" function="internal">