<net xmlns:xsi="http://www.w3.org/2001/XMLSchema-instance" version="1.16" junctionCornerDetail="5" limitTurnSpeed="5.50" xsi:noNamespaceSchemaLocation="http://sumo.dlr.de/xsd/net_file.xsd">

    <location netOffset="0.00,0.00" convBoundary="0.00,0.00,60.00,32.73" origBoundary="-10000000000.00,-10000000000.00,10000000000.00,10000000000.00" projParameter="!" />

    <edge id="E0" from="J0" to="J1" priority="-1" shape="0.00,0.00 1.73,3.63 2.60,5.37 3.47,7.05 4.33,8.68 5.20,10.26 6.06,11.78 6.93,13.25 7.79,14.67 8.66,16.03 9.52,17.34 10.39,18.59 11.25,19.80 12.11,20.94 12.98,22.04 13.84,23.08 14.70,24.07 15.56,25.00 16.42,25.89 17.29,26.71 18.15,27.49 19.01,28.21 19.87,28.88 20.73,29.49 21.59,30.05 22.45,30.56 23.31,31.02 24.17,31.42 25.03,31.76 25.89,32.06 26.74,32.30 27.60,32.48 28.46,32.62 29.32,32.70 30.18,32.73 31.03,32.70 31.89,32.62 32.75,32.48 33.60,32.30 34.46,32.06 35.31,31.76 36.17,31.42 37.02,31.02 37.88,30.56 38.73,30.05 39.59,29.49 40.44,28.88 41.29,28.21 42.15,27.49 43.00,26.71 43.85,25.89 44.71,25.00 45.56,24.07 46.41,23.08 47.26,22.04 48.11,20.94 48.96,19.80 49.81,18.59 50.66,17.34 51.51,16.03 52.36,14.67 53.21,13.25 54.06,11.78 54.91,10.26 55.76,8.68 56.61,7.05 57.46,5.37 58.31,3.63 59.15,1.84 60.00,0.00">
        <lane id="E0_0" index="0" speed="0" length="92.92" shape="1.44,-0.69 3.17,2.93 4.03,4.64 4.89,6.31 5.74,7.92 6.60,9.48 7.44,10.98 8.30,12.43 9.15,13.82 10.00,15.16 10.85,16.44 11.70,17.67 12.54,18.86 13.38,19.96 14.22,21.03 15.06,22.05 15.89,23.00 16.72,23.90 17.54,24.75 18.38,25.54 19.20,26.28 20.02,26.97 20.83,27.60 21.63,28.17 22.44,28.69 23.24,29.17 24.03,29.59 24.80,29.95 25.59,30.26 26.37,30.53 27.12,30.75 27.89,30.91 28.66,31.03 29.42,31.10 30.18,31.13 30.93,31.10 31.69,31.03 32.46,30.91 33.22,30.75 33.98,30.53 34.75,30.26 35.53,29.95 36.30,29.59 37.09,29.17 37.88,28.69 38.69,28.17 39.48,27.60 40.28,26.97 41.09,26.29 41.90,25.54 42.72,24.76 43.54,23.90 44.36,23.01 45.18,22.05 46.01,21.04 46.84,19.97 47.66,18.86 48.49,17.68 49.33,16.45 50.16,15.17 50.99,13.84 51.83,12.44 52.67,10.99 53.51,9.49 54.35,7.93 55.19,6.32 56.03,4.66 56.87,2.94 57.70,1.16 58.55,-0.67" />
    </edge>

    <junction id="J0" type="dead_end" x="0.00" y="0.00" incLanes="" intLanes="" shape="0.00,-0.00 2.89,-1.38" />
    <junction id="J1" type="dead_end" x="60.00" y="0.00" incLanes="E0_0" intLanes="" shape="57.09,-1.34 60.00,-0.00" />

</net>